MODEL 1
REMARK VINA RESULT:   -10.092      0.000      0.000
REMARK INTER + INTRA:         -15.886
REMARK INTER:                 -14.225
REMARK INTRA:                  -1.662
REMARK UNBOUND:                -1.074
REMARK SMILES C[C@H](N)C(=O)N[C@@H](C)C(=O)N[C@H]1[C@@H]2CN(c3nc4c(cc3F)c(=O)c(C(=O)O)cn4-c3ccc(F)cc3F)C[C@@H]21
REMARK SMILES IDX 11 1 9 2 10 3 12 5 13 6 14 7 40 8 15 9 39 10 16 11 17 12
REMARK SMILES IDX 21 13 18 14 20 15 22 16 19 17 30 18 23 19 29 20 24 21 25 22
REMARK SMILES IDX 31 23 32 24 37 25 33 26 36 27 38 28 34 29 35 30 26 31 27 32
REMARK SMILES IDX 28 33 7 35 8 36 6 37 4 38 5 40 2 41 1 42 3 43
REMARK H PARENT 11 4 28 34 6 39 3 44 3 45
REMARK Flexibility Score: inf
ROOT
ATOM      1  N   UNL     1      20.336  11.158  17.150  1.00  0.00    -0.351 N 
ATOM      2  C   UNL     1      20.378  11.058  18.572  1.00  0.00     0.242 C 
ATOM      3  O   UNL     1      20.053  12.044  19.286  1.00  0.00    -0.273 OA
ATOM      4  H   UNL     1      20.613  10.318  16.601  1.00  0.00     0.163 HD
ENDROOT
BRANCH   1   5
ATOM      5  C   UNL     1      19.935  12.340  16.439  1.00  0.00     0.092 C 
ATOM      6  C   UNL     1      20.975  13.374  16.223  1.00  0.00     0.038 C 
ATOM      7  C   UNL     1      20.532  14.771  16.002  1.00  0.00     0.124 C 
ATOM      8  C   UNL     1      20.512  12.561  15.092  1.00  0.00     0.038 C 
ATOM      9  N   UNL     1      19.781  14.804  14.774  1.00  0.00    -0.353 N 
ATOM     10  C   UNL     1      19.950  13.535  14.114  1.00  0.00     0.124 C 
BRANCH   9  11
ATOM     11  C   UNL     1      19.004  15.900  14.288  1.00  0.00     0.167 A 
ATOM     12  N   UNL     1      17.666  15.839  14.185  1.00  0.00    -0.209 NA
ATOM     13  C   UNL     1      19.677  17.046  13.917  1.00  0.00     0.166 A 
ATOM     14  C   UNL     1      16.990  16.921  13.711  1.00  0.00     0.151 A 
ATOM     15  C   UNL     1      19.036  18.166  13.431  1.00  0.00     0.059 A 
ATOM     16  F   UNL     1      21.027  17.102  14.022  1.00  0.00    -0.203 F 
ATOM     17  C   UNL     1      17.641  18.076  13.334  1.00  0.00     0.069 A 
ATOM     18  N   UNL     1      15.641  16.765  13.642  1.00  0.00    -0.297 N 
ATOM     19  C   UNL     1      16.890  19.124  12.865  1.00  0.00     0.205 A 
ATOM     20  C   UNL     1      14.938  17.813  13.177  1.00  0.00     0.113 A 
ATOM     21  O   UNL     1      17.461  20.172  12.520  1.00  0.00    -0.288 OA
ATOM     22  C   UNL     1      15.521  18.995  12.783  1.00  0.00     0.124 A 
BRANCH  18  23
ATOM     23  C   UNL     1      15.017  15.551  14.045  1.00  0.00     0.083 A 
ATOM     24  C   UNL     1      14.469  15.436  15.311  1.00  0.00     0.033 A 
ATOM     25  C   UNL     1      14.916  14.440  13.235  1.00  0.00     0.150 A 
ATOM     26  C   UNL     1      13.859  14.263  15.716  1.00  0.00     0.041 A 
ATOM     27  C   UNL     1      14.315  13.259  13.612  1.00  0.00     0.080 A 
ATOM     28  F   UNL     1      15.440  14.514  11.990  1.00  0.00    -0.205 F 
ATOM     29  C   UNL     1      13.772  13.174  14.893  1.00  0.00     0.126 A 
ATOM     30  F   UNL     1      13.172  12.011  15.285  1.00  0.00    -0.207 F 
ENDBRANCH  18  23
BRANCH  22  31
ATOM     31  C   UNL     1      14.741  20.123  12.280  1.00  0.00     0.341 C 
ATOM     32  O   UNL     1      14.040  20.011  11.243  1.00  0.00    -0.246 OA
BRANCH  31  33
ATOM     33  O   UNL     1      14.734  21.357  12.911  1.00  0.00    -0.477 OA
ATOM     34  H   UNL     1      13.895  21.737  13.351  1.00  0.00     0.297 HD
ENDBRANCH  31  33
ENDBRANCH  22  31
ENDBRANCH   9  11
ENDBRANCH   1   5
BRANCH   2  35
ATOM     35  C   UNL     1      20.813   9.772  19.183  1.00  0.00     0.168 C 
ATOM     36  C   UNL     1      20.024   9.487  20.448  1.00  0.00     0.041 C 
BRANCH  35  37
ATOM     37  N   UNL     1      22.226   9.786  19.464  1.00  0.00    -0.343 N 
ATOM     38  C   UNL     1      23.118   9.287  18.477  1.00  0.00     0.237 C 
ATOM     39  H   UNL     1      22.570  10.156  20.383  1.00  0.00     0.164 HD
ATOM     40  O   UNL     1      22.646   8.861  17.408  1.00  0.00    -0.273 OA
BRANCH  38  41
ATOM     41  C   UNL     1      24.585   9.269  18.700  1.00  0.00     0.138 C 
ATOM     42  C   UNL     1      25.115   7.859  18.507  1.00  0.00     0.035 C 
BRANCH  41  43
ATOM     43  N   UNL     1      24.894   9.736  20.024  1.00  0.00    -0.320 NA
ATOM     44  H   UNL     1      25.888   9.509  20.231  1.00  0.00     0.119 HD
ATOM     45  H   UNL     1      24.793  10.771  20.096  1.00  0.00     0.119 HD
ENDBRANCH  41  43
ENDBRANCH  38  41
ENDBRANCH  35  37
ENDBRANCH   2  35
TORSDOF 9
ENDMDL
MODEL 2
REMARK VINA RESULT:   -10.059      3.299      5.760
REMARK INTER + INTRA:         -15.838
REMARK INTER:                 -14.343
REMARK INTRA:                  -1.494
REMARK UNBOUND:                -1.074
REMARK SMILES C[C@H](N)C(=O)N[C@@H](C)C(=O)N[C@H]1[C@@H]2CN(c3nc4c(cc3F)c(=O)c(C(=O)O)cn4-c3ccc(F)cc3F)C[C@@H]21
REMARK SMILES IDX 11 1 9 2 10 3 12 5 13 6 14 7 40 8 15 9 39 10 16 11 17 12
REMARK SMILES IDX 21 13 18 14 20 15 22 16 19 17 30 18 23 19 29 20 24 21 25 22
REMARK SMILES IDX 31 23 32 24 37 25 33 26 36 27 38 28 34 29 35 30 26 31 27 32
REMARK SMILES IDX 28 33 7 35 8 36 6 37 4 38 5 40 2 41 1 42 3 43
REMARK H PARENT 11 4 28 34 6 39 3 44 3 45
REMARK Flexibility Score: inf
ROOT
ATOM      1  N   UNL     1      23.682   8.806  17.744  1.00  0.00    -0.351 N 
ATOM      2  C   UNL     1      23.275   7.681  18.520  1.00  0.00     0.242 C 
ATOM      3  O   UNL     1      22.059   7.510  18.799  1.00  0.00    -0.273 OA
ATOM      4  H   UNL     1      24.697   8.906  17.539  1.00  0.00     0.163 HD
ENDROOT
BRANCH   1   5
ATOM      5  C   UNL     1      22.778   9.799  17.235  1.00  0.00     0.092 C 
ATOM      6  C   UNL     1      22.956  11.184  17.732  1.00  0.00     0.038 C 
ATOM      7  C   UNL     1      21.791  12.098  17.683  1.00  0.00     0.124 C 
ATOM      8  C   UNL     1      23.337  10.852  16.354  1.00  0.00     0.038 C 
ATOM      9  N   UNL     1      21.443  12.291  16.299  1.00  0.00    -0.353 N 
ATOM     10  C   UNL     1      22.494  11.727  15.493  1.00  0.00     0.124 C 
BRANCH   9  11
ATOM     11  C   UNL     1      20.265  12.932  15.807  1.00  0.00     0.167 A 
ATOM     12  N   UNL     1      20.199  14.261  15.618  1.00  0.00    -0.209 NA
ATOM     13  C   UNL     1      19.174  12.136  15.525  1.00  0.00     0.166 A 
ATOM     14  C   UNL     1      19.043  14.804  15.148  1.00  0.00     0.151 A 
ATOM     15  C   UNL     1      17.983  12.641  15.048  1.00  0.00     0.059 A 
ATOM     16  F   UNL     1      19.245  10.797  15.717  1.00  0.00    -0.203 F 
ATOM     17  C   UNL     1      17.940  14.029  14.860  1.00  0.00     0.069 A 
ATOM     18  N   UNL     1      19.071  16.155  14.991  1.00  0.00    -0.297 N 
ATOM     19  C   UNL     1      16.811  14.651  14.390  1.00  0.00     0.205 A 
ATOM     20  C   UNL     1      17.946  16.729  14.528  1.00  0.00     0.113 A 
ATOM     21  O   UNL     1      15.808  13.967  14.127  1.00  0.00    -0.288 OA
ATOM     22  C   UNL     1      16.809  16.018  14.221  1.00  0.00     0.124 A 
BRANCH  18  23
ATOM     23  C   UNL     1      20.237  16.910  15.302  1.00  0.00     0.083 A 
ATOM     24  C   UNL     1      20.503  17.271  16.613  1.00  0.00     0.033 A 
ATOM     25  C   UNL     1      21.154  17.321  14.359  1.00  0.00     0.150 A 
ATOM     26  C   UNL     1      21.632  18.003  16.931  1.00  0.00     0.041 A 
ATOM     27  C   UNL     1      22.286  18.051  14.648  1.00  0.00     0.080 A 
ATOM     28  F   UNL     1      20.928  16.986  13.068  1.00  0.00    -0.205 F 
ATOM     29  C   UNL     1      22.527  18.400  15.976  1.00  0.00     0.126 A 
ATOM     30  F   UNL     1      23.645  19.124  16.281  1.00  0.00    -0.207 F 
ENDBRANCH  18  23
BRANCH  22  31
ATOM     31  C   UNL     1      15.596  16.660  13.720  1.00  0.00     0.341 C 
ATOM     32  O   UNL     1      15.123  17.677  14.289  1.00  0.00    -0.246 OA
BRANCH  31  33
ATOM     33  O   UNL     1      14.915  16.188  12.610  1.00  0.00    -0.477 OA
ATOM     34  H   UNL     1      14.240  16.761  12.103  1.00  0.00     0.297 HD
ENDBRANCH  31  33
ENDBRANCH  22  31
ENDBRANCH   9  11
ENDBRANCH   1   5
BRANCH   2  35
ATOM     35  C   UNL     1      24.316   6.725  18.988  1.00  0.00     0.168 C 
ATOM     36  C   UNL     1      25.675   7.096  18.422  1.00  0.00     0.041 C 
BRANCH  35  37
ATOM     37  N   UNL     1      23.974   5.372  18.627  1.00  0.00    -0.343 N 
ATOM     38  C   UNL     1      24.163   4.346  19.591  1.00  0.00     0.237 C 
ATOM     39  H   UNL     1      23.597   5.169  17.670  1.00  0.00     0.164 HD
ATOM     40  O   UNL     1      24.614   4.654  20.708  1.00  0.00    -0.273 OA
BRANCH  38  41
ATOM     41  C   UNL     1      23.834   2.931  19.288  1.00  0.00     0.138 C 
ATOM     42  C   UNL     1      24.108   2.069  20.508  1.00  0.00     0.035 C 
BRANCH  41  43
ATOM     43  N   UNL     1      24.612   2.466  18.171  1.00  0.00    -0.320 NA
ATOM     44  H   UNL     1      25.075   1.575  18.439  1.00  0.00     0.119 HD
ATOM     45  H   UNL     1      24.008   2.264  17.345  1.00  0.00     0.119 HD
ENDBRANCH  41  43
ENDBRANCH  38  41
ENDBRANCH  35  37
ENDBRANCH   2  35
TORSDOF 9
ENDMDL
MODEL 3
REMARK VINA RESULT:    -9.812      9.105     17.160
REMARK INTER + INTRA:         -15.474
REMARK INTER:                 -13.753
REMARK INTRA:                  -1.721
REMARK UNBOUND:                -1.074
REMARK SMILES C[C@H](N)C(=O)N[C@@H](C)C(=O)N[C@H]1[C@@H]2CN(c3nc4c(cc3F)c(=O)c(C(=O)O)cn4-c3ccc(F)cc3F)C[C@@H]21
REMARK SMILES IDX 11 1 9 2 10 3 12 5 13 6 14 7 40 8 15 9 39 10 16 11 17 12
REMARK SMILES IDX 21 13 18 14 20 15 22 16 19 17 30 18 23 19 29 20 24 21 25 22
REMARK SMILES IDX 31 23 32 24 37 25 33 26 36 27 38 28 34 29 35 30 26 31 27 32
REMARK SMILES IDX 28 33 7 35 8 36 6 37 4 38 5 40 2 41 1 42 3 43
REMARK H PARENT 11 4 28 34 6 39 3 44 3 45
REMARK Flexibility Score: inf
ROOT
ATOM      1  N   UNL     1      24.103   6.715  19.465  1.00  0.00    -0.351 N 
ATOM      2  C   UNL     1      25.294   7.445  19.182  1.00  0.00     0.242 C 
ATOM      3  O   UNL     1      26.194   7.554  20.056  1.00  0.00    -0.273 OA
ATOM      4  H   UNL     1      23.388   6.651  18.712  1.00  0.00     0.163 HD
ENDROOT
BRANCH   1   5
ATOM      5  C   UNL     1      23.838   6.066  20.720  1.00  0.00     0.092 C 
ATOM      6  C   UNL     1      23.286   6.911  21.805  1.00  0.00     0.038 C 
ATOM      7  C   UNL     1      23.493   6.470  23.205  1.00  0.00     0.124 C 
ATOM      8  C   UNL     1      22.423   5.929  21.138  1.00  0.00     0.038 C 
ATOM      9  N   UNL     1      22.799   5.221  23.379  1.00  0.00    -0.353 N 
ATOM     10  C   UNL     1      21.978   5.002  22.216  1.00  0.00     0.124 C 
BRANCH   9  11
ATOM     11  C   UNL     1      22.899   4.349  24.506  1.00  0.00     0.167 A 
ATOM     12  N   UNL     1      23.645   3.232  24.483  1.00  0.00    -0.209 NA
ATOM     13  C   UNL     1      22.193   4.689  25.642  1.00  0.00     0.166 A 
ATOM     14  C   UNL     1      23.693   2.447  25.593  1.00  0.00     0.151 A 
ATOM     15  C   UNL     1      22.210   3.924  26.789  1.00  0.00     0.059 A 
ATOM     16  F   UNL     1      21.441   5.815  25.660  1.00  0.00    -0.203 F 
ATOM     17  C   UNL     1      22.996   2.766  26.739  1.00  0.00     0.069 A 
ATOM     18  N   UNL     1      24.472   1.338  25.474  1.00  0.00    -0.297 N 
ATOM     19  C   UNL     1      23.093   1.922  27.817  1.00  0.00     0.205 A 
ATOM     20  C   UNL     1      24.543   0.536  26.551  1.00  0.00     0.113 A 
ATOM     21  O   UNL     1      22.471   2.194  28.857  1.00  0.00    -0.288 OA
ATOM     22  C   UNL     1      23.875   0.792  27.726  1.00  0.00     0.124 A 
BRANCH  18  23
ATOM     23  C   UNL     1      25.172   1.055  24.268  1.00  0.00     0.083 A 
ATOM     24  C   UNL     1      24.572   0.297  23.276  1.00  0.00     0.033 A 
ATOM     25  C   UNL     1      26.451   1.497  24.006  1.00  0.00     0.150 A 
ATOM     26  C   UNL     1      25.239   0.015  22.098  1.00  0.00     0.041 A 
ATOM     27  C   UNL     1      27.139   1.231  22.842  1.00  0.00     0.080 A 
ATOM     28  F   UNL     1      27.070   2.241  24.951  1.00  0.00    -0.205 F 
ATOM     29  C   UNL     1      26.508   0.465  21.862  1.00  0.00     0.126 A 
ATOM     30  F   UNL     1      27.175   0.190  20.702  1.00  0.00    -0.207 F 
ENDBRANCH  18  23
BRANCH  22  31
ATOM     31  C   UNL     1      23.964  -0.092  28.885  1.00  0.00     0.341 C 
ATOM     32  O   UNL     1      25.079  -0.496  29.303  1.00  0.00    -0.246 OA
BRANCH  31  33
ATOM     33  O   UNL     1      22.842  -0.525  29.574  1.00  0.00    -0.477 OA
ATOM     34  H   UNL     1      22.202   0.124  30.031  1.00  0.00     0.297 HD
ENDBRANCH  31  33
ENDBRANCH  22  31
ENDBRANCH   9  11
ENDBRANCH   1   5
BRANCH   2  35
ATOM     35  C   UNL     1      25.443   8.070  17.838  1.00  0.00     0.168 C 
ATOM     36  C   UNL     1      26.811   7.765  17.256  1.00  0.00     0.041 C 
BRANCH  35  37
ATOM     37  N   UNL     1      25.230   9.493  17.904  1.00  0.00    -0.343 N 
ATOM     38  C   UNL     1      23.912   9.990  17.724  1.00  0.00     0.237 C 
ATOM     39  H   UNL     1      26.042  10.133  18.080  1.00  0.00     0.164 HD
ATOM     40  O   UNL     1      22.992   9.178  17.518  1.00  0.00    -0.273 OA
BRANCH  38  41
ATOM     41  C   UNL     1      23.619  11.444  17.777  1.00  0.00     0.138 C 
ATOM     42  C   UNL     1      22.120  11.669  17.680  1.00  0.00     0.035 C 
BRANCH  41  43
ATOM     43  N   UNL     1      24.291  12.127  16.705  1.00  0.00    -0.320 NA
ATOM     44  H   UNL     1      23.574  12.548  16.081  1.00  0.00     0.119 HD
ATOM     45  H   UNL     1      24.883  12.908  17.063  1.00  0.00     0.119 HD
ENDBRANCH  41  43
ENDBRANCH  38  41
ENDBRANCH  35  37
ENDBRANCH   2  35
TORSDOF 9
ENDMDL
MODEL 4
REMARK VINA RESULT:    -9.741      5.815     10.891
REMARK INTER + INTRA:         -15.371
REMARK INTER:                 -13.961
REMARK INTRA:                  -1.409
REMARK UNBOUND:                -1.074
REMARK SMILES C[C@H](N)C(=O)N[C@@H](C)C(=O)N[C@H]1[C@@H]2CN(c3nc4c(cc3F)c(=O)c(C(=O)O)cn4-c3ccc(F)cc3F)C[C@@H]21
REMARK SMILES IDX 11 1 9 2 10 3 12 5 13 6 14 7 40 8 15 9 39 10 16 11 17 12
REMARK SMILES IDX 21 13 18 14 20 15 22 16 19 17 30 18 23 19 29 20 24 21 25 22
REMARK SMILES IDX 31 23 32 24 37 25 33 26 36 27 38 28 34 29 35 30 26 31 27 32
REMARK SMILES IDX 28 33 7 35 8 36 6 37 4 38 5 40 2 41 1 42 3 43
REMARK H PARENT 11 4 28 34 6 39 3 44 3 45
REMARK Flexibility Score: inf
ROOT
ATOM      1  N   UNL     1      22.976  22.638  17.779  1.00  0.00    -0.351 N 
ATOM      2  C   UNL     1      22.290  23.584  16.962  1.00  0.00     0.242 C 
ATOM      3  O   UNL     1      21.692  23.206  15.920  1.00  0.00    -0.273 OA
ATOM      4  H   UNL     1      23.456  22.997  18.630  1.00  0.00     0.163 HD
ENDROOT
BRANCH   1   5
ATOM      5  C   UNL     1      23.041  21.231  17.496  1.00  0.00     0.092 C 
ATOM      6  C   UNL     1      24.102  20.785  16.562  1.00  0.00     0.038 C 
ATOM      7  C   UNL     1      23.899  19.510  15.834  1.00  0.00     0.124 C 
ATOM      8  C   UNL     1      24.220  20.483  17.994  1.00  0.00     0.038 C 
ATOM      9  N   UNL     1      23.857  18.451  16.809  1.00  0.00    -0.353 N 
ATOM     10  C   UNL     1      24.266  18.996  18.078  1.00  0.00     0.124 C 
BRANCH   9  11
ATOM     11  C   UNL     1      23.480  17.095  16.567  1.00  0.00     0.167 A 
ATOM     12  N   UNL     1      22.315  16.769  15.980  1.00  0.00    -0.209 NA
ATOM     13  C   UNL     1      24.359  16.106  16.960  1.00  0.00     0.166 A 
ATOM     14  C   UNL     1      22.020  15.456  15.782  1.00  0.00     0.151 A 
ATOM     15  C   UNL     1      24.102  14.763  16.781  1.00  0.00     0.059 A 
ATOM     16  F   UNL     1      25.530  16.439  17.552  1.00  0.00    -0.203 F 
ATOM     17  C   UNL     1      22.883  14.451  16.167  1.00  0.00     0.069 A 
ATOM     18  N   UNL     1      20.821  15.225  15.182  1.00  0.00    -0.297 N 
ATOM     19  C   UNL     1      22.513  13.151  15.934  1.00  0.00     0.205 A 
ATOM     20  C   UNL     1      20.494  13.938  14.971  1.00  0.00     0.113 A 
ATOM     21  O   UNL     1      23.278  12.233  16.276  1.00  0.00    -0.288 OA
ATOM     22  C   UNL     1      21.304  12.886  15.329  1.00  0.00     0.124 A 
BRANCH  18  23
ATOM     23  C   UNL     1      19.968  16.299  14.803  1.00  0.00     0.083 A 
ATOM     24  C   UNL     1      18.923  16.682  15.628  1.00  0.00     0.033 A 
ATOM     25  C   UNL     1      20.112  17.011  13.632  1.00  0.00     0.150 A 
ATOM     26  C   UNL     1      18.086  17.724  15.273  1.00  0.00     0.041 A 
ATOM     27  C   UNL     1      19.293  18.053  13.255  1.00  0.00     0.080 A 
ATOM     28  F   UNL     1      21.123  16.667  12.802  1.00  0.00    -0.205 F 
ATOM     29  C   UNL     1      18.250  18.415  14.105  1.00  0.00     0.126 A 
ATOM     30  F   UNL     1      17.427  19.446  13.746  1.00  0.00    -0.207 F 
ENDBRANCH  18  23
BRANCH  22  31
ATOM     31  C   UNL     1      20.931  11.494  15.091  1.00  0.00     0.341 C 
ATOM     32  O   UNL     1      19.768  11.087  15.340  1.00  0.00    -0.246 OA
BRANCH  31  33
ATOM     33  O   UNL     1      21.826  10.564  14.587  1.00  0.00    -0.477 OA
ATOM     34  H   UNL     1      22.810  10.785  14.434  1.00  0.00     0.297 HD
ENDBRANCH  31  33
ENDBRANCH  22  31
ENDBRANCH   9  11
ENDBRANCH   1   5
BRANCH   2  35
ATOM     35  C   UNL     1      22.301  25.016  17.369  1.00  0.00     0.168 C 
ATOM     36  C   UNL     1      22.510  25.144  18.868  1.00  0.00     0.041 C 
BRANCH  35  37
ATOM     37  N   UNL     1      21.081  25.674  16.975  1.00  0.00    -0.343 N 
ATOM     38  C   UNL     1      21.158  26.732  16.029  1.00  0.00     0.237 C 
ATOM     39  H   UNL     1      20.167  25.368  17.387  1.00  0.00     0.164 HD
ATOM     40  O   UNL     1      22.273  27.047  15.577  1.00  0.00    -0.273 OA
BRANCH  38  41
ATOM     41  C   UNL     1      19.943  27.455  15.577  1.00  0.00     0.138 C 
ATOM     42  C   UNL     1      20.322  28.848  15.105  1.00  0.00     0.035 C 
BRANCH  41  43
ATOM     43  N   UNL     1      18.988  27.541  16.648  1.00  0.00    -0.320 NA
ATOM     44  H   UNL     1      19.236  28.353  17.248  1.00  0.00     0.119 HD
ATOM     45  H   UNL     1      18.024  27.708  16.286  1.00  0.00     0.119 HD
ENDBRANCH  41  43
ENDBRANCH  38  41
ENDBRANCH  35  37
ENDBRANCH   2  35
TORSDOF 9
ENDMDL
MODEL 5
REMARK VINA RESULT:    -9.733      5.254      6.940
REMARK INTER + INTRA:         -15.358
REMARK INTER:                 -14.181
REMARK INTRA:                  -1.177
REMARK UNBOUND:                -1.074
REMARK SMILES C[C@H](N)C(=O)N[C@@H](C)C(=O)N[C@H]1[C@@H]2CN(c3nc4c(cc3F)c(=O)c(C(=O)O)cn4-c3ccc(F)cc3F)C[C@@H]21
REMARK SMILES IDX 11 1 9 2 10 3 12 5 13 6 14 7 40 8 15 9 39 10 16 11 17 12
REMARK SMILES IDX 21 13 18 14 20 15 22 16 19 17 30 18 23 19 29 20 24 21 25 22
REMARK SMILES IDX 31 23 32 24 37 25 33 26 36 27 38 28 34 29 35 30 26 31 27 32
REMARK SMILES IDX 28 33 7 35 8 36 6 37 4 38 5 40 2 41 1 42 3 43
REMARK H PARENT 11 4 28 34 6 39 3 44 3 45
REMARK Flexibility Score: inf
ROOT
ATOM      1  N   UNL     1      22.789  11.400  18.309  1.00  0.00    -0.351 N 
ATOM      2  C   UNL     1      21.866  10.863  19.252  1.00  0.00     0.242 C 
ATOM      3  O   UNL     1      21.174  11.631  19.971  1.00  0.00    -0.273 OA
ATOM      4  H   UNL     1      23.339  10.726  17.737  1.00  0.00     0.163 HD
ENDROOT
BRANCH   1   5
ATOM      5  C   UNL     1      23.002  12.806  18.104  1.00  0.00     0.092 C 
ATOM      6  C   UNL     1      23.585  13.212  16.803  1.00  0.00     0.038 C 
ATOM      7  C   UNL     1      24.304  14.506  16.736  1.00  0.00     0.124 C 
ATOM      8  C   UNL     1      22.171  13.486  17.082  1.00  0.00     0.038 C 
ATOM      9  N   UNL     1      23.351  15.551  17.005  1.00  0.00    -0.353 N 
ATOM     10  C   UNL     1      22.035  14.967  16.996  1.00  0.00     0.124 C 
BRANCH   9  11
ATOM     11  C   UNL     1      23.651  16.928  17.237  1.00  0.00     0.167 A 
ATOM     12  N   UNL     1      23.035  17.918  16.569  1.00  0.00    -0.209 NA
ATOM     13  C   UNL     1      24.612  17.223  18.183  1.00  0.00     0.166 A 
ATOM     14  C   UNL     1      23.373  19.208  16.840  1.00  0.00     0.151 A 
ATOM     15  C   UNL     1      24.987  18.514  18.490  1.00  0.00     0.059 A 
ATOM     16  F   UNL     1      25.231  16.222  18.853  1.00  0.00    -0.203 F 
ATOM     17  C   UNL     1      24.329  19.526  17.780  1.00  0.00     0.069 A 
ATOM     18  N   UNL     1      22.697  20.139  16.113  1.00  0.00    -0.297 N 
ATOM     19  C   UNL     1      24.616  20.851  17.996  1.00  0.00     0.205 A 
ATOM     20  C   UNL     1      23.005  21.426  16.352  1.00  0.00     0.113 A 
ATOM     21  O   UNL     1      25.476  21.155  18.839  1.00  0.00    -0.288 OA
ATOM     22  C   UNL     1      23.948  21.816  17.275  1.00  0.00     0.124 A 
BRANCH  18  23
ATOM     23  C   UNL     1      21.717  19.757  15.155  1.00  0.00     0.083 A 
ATOM     24  C   UNL     1      20.375  19.743  15.497  1.00  0.00     0.033 A 
ATOM     25  C   UNL     1      22.019  19.386  13.862  1.00  0.00     0.150 A 
ATOM     26  C   UNL     1      19.412  19.375  14.576  1.00  0.00     0.041 A 
ATOM     27  C   UNL     1      21.080  19.015  12.924  1.00  0.00     0.080 A 
ATOM     28  F   UNL     1      23.320  19.388  13.490  1.00  0.00    -0.205 F 
ATOM     29  C   UNL     1      19.738  19.011  13.299  1.00  0.00     0.126 A 
ATOM     30  F   UNL     1      18.792  18.646  12.382  1.00  0.00    -0.207 F 
ENDBRANCH  18  23
BRANCH  22  31
ATOM     31  C   UNL     1      24.268  23.220  17.520  1.00  0.00     0.341 C 
ATOM     32  O   UNL     1      24.560  23.990  16.570  1.00  0.00    -0.246 OA
BRANCH  31  33
ATOM     33  O   UNL     1      24.268  23.767  18.794  1.00  0.00    -0.477 OA
ATOM     34  H   UNL     1      24.454  24.756  18.960  1.00  0.00     0.297 HD
ENDBRANCH  31  33
ENDBRANCH  22  31
ENDBRANCH   9  11
ENDBRANCH   1   5
BRANCH   2  35
ATOM     35  C   UNL     1      21.743   9.383  19.364  1.00  0.00     0.168 C 
ATOM     36  C   UNL     1      20.314   8.943  19.100  1.00  0.00     0.041 C 
BRANCH  35  37
ATOM     37  N   UNL     1      22.177   8.925  20.659  1.00  0.00    -0.343 N 
ATOM     38  C   UNL     1      23.467   8.339  20.773  1.00  0.00     0.237 C 
ATOM     39  H   UNL     1      21.542   9.028  21.487  1.00  0.00     0.164 HD
ATOM     40  O   UNL     1      24.171   8.247  19.752  1.00  0.00    -0.273 OA
BRANCH  38  41
ATOM     41  C   UNL     1      23.979   7.845  22.075  1.00  0.00     0.138 C 
ATOM     42  C   UNL     1      24.416   6.397  21.937  1.00  0.00     0.035 C 
BRANCH  41  43
ATOM     43  N   UNL     1      22.964   7.959  23.086  1.00  0.00    -0.320 NA
ATOM     44  H   UNL     1      22.995   7.108  23.683  1.00  0.00     0.119 HD
ATOM     45  H   UNL     1      23.136   8.778  23.708  1.00  0.00     0.119 HD
ENDBRANCH  41  43
ENDBRANCH  38  41
ENDBRANCH  35  37
ENDBRANCH   2  35
TORSDOF 9
ENDMDL
MODEL 6
REMARK VINA RESULT:    -9.607      5.416      7.332
REMARK INTER + INTRA:         -15.173
REMARK INTER:                 -13.575
REMARK INTRA:                  -1.598
REMARK UNBOUND:                -1.074
REMARK SMILES C[C@H](N)C(=O)N[C@@H](C)C(=O)N[C@H]1[C@@H]2CN(c3nc4c(cc3F)c(=O)c(C(=O)O)cn4-c3ccc(F)cc3F)C[C@@H]21
REMARK SMILES IDX 11 1 9 2 10 3 12 5 13 6 14 7 40 8 15 9 39 10 16 11 17 12
REMARK SMILES IDX 21 13 18 14 20 15 22 16 19 17 30 18 23 19 29 20 24 21 25 22
REMARK SMILES IDX 31 23 32 24 37 25 33 26 36 27 38 28 34 29 35 30 26 31 27 32
REMARK SMILES IDX 28 33 7 35 8 36 6 37 4 38 5 40 2 41 1 42 3 43
REMARK H PARENT 11 4 28 34 6 39 3 44 3 45
REMARK Flexibility Score: inf
ROOT
ATOM      1  N   UNL     1      23.451  13.746  16.745  1.00  0.00    -0.351 N 
ATOM      2  C   UNL     1      22.210  13.070  16.555  1.00  0.00     0.242 C 
ATOM      3  O   UNL     1      21.130  13.717  16.554  1.00  0.00    -0.273 OA
ATOM      4  H   UNL     1      24.318  13.170  16.737  1.00  0.00     0.163 HD
ENDROOT
BRANCH   1   5
ATOM      5  C   UNL     1      23.572  15.164  16.942  1.00  0.00     0.092 C 
ATOM      6  C   UNL     1      24.432  15.613  18.063  1.00  0.00     0.038 C 
ATOM      7  C   UNL     1      24.181  16.954  18.640  1.00  0.00     0.124 C 
ATOM      8  C   UNL     1      24.892  15.786  16.680  1.00  0.00     0.038 C 
ATOM      9  N   UNL     1      24.448  17.929  17.614  1.00  0.00    -0.353 N 
ATOM     10  C   UNL     1      25.082  17.254  16.512  1.00  0.00     0.124 C 
BRANCH   9  11
ATOM     11  C   UNL     1      24.145  19.323  17.675  1.00  0.00     0.167 A 
ATOM     12  N   UNL     1      23.234  19.893  16.867  1.00  0.00    -0.209 NA
ATOM     13  C   UNL     1      24.825  20.087  18.601  1.00  0.00     0.166 A 
ATOM     14  C   UNL     1      22.996  21.228  16.978  1.00  0.00     0.151 A 
ATOM     15  C   UNL     1      24.619  21.442  18.749  1.00  0.00     0.059 A 
ATOM     16  F   UNL     1      25.743  19.509  19.411  1.00  0.00    -0.203 F 
ATOM     17  C   UNL     1      23.665  22.011  17.896  1.00  0.00     0.069 A 
ATOM     18  N   UNL     1      22.060  21.715  16.120  1.00  0.00    -0.297 N 
ATOM     19  C   UNL     1      23.371  23.351  17.946  1.00  0.00     0.205 A 
ATOM     20  C   UNL     1      21.799  23.032  16.199  1.00  0.00     0.113 A 
ATOM     21  O   UNL     1      23.964  24.071  18.767  1.00  0.00    -0.288 OA
ATOM     22  C   UNL     1      22.427  23.872  17.089  1.00  0.00     0.124 A 
BRANCH  18  23
ATOM     23  C   UNL     1      21.398  20.863  15.191  1.00  0.00     0.083 A 
ATOM     24  C   UNL     1      20.235  20.205  15.557  1.00  0.00     0.033 A 
ATOM     25  C   UNL     1      21.848  20.638  13.908  1.00  0.00     0.150 A 
ATOM     26  C   UNL     1      19.581  19.375  14.665  1.00  0.00     0.041 A 
ATOM     27  C   UNL     1      21.216  19.817  13.000  1.00  0.00     0.080 A 
ATOM     28  F   UNL     1      22.980  21.264  13.515  1.00  0.00    -0.205 F 
ATOM     29  C   UNL     1      20.048  19.168  13.397  1.00  0.00     0.126 A 
ATOM     30  F   UNL     1      19.408  18.349  12.509  1.00  0.00    -0.207 F 
ENDBRANCH  18  23
BRANCH  22  31
ATOM     31  C   UNL     1      22.130  25.300  17.160  1.00  0.00     0.341 C 
ATOM     32  O   UNL     1      22.151  26.015  16.126  1.00  0.00    -0.246 OA
BRANCH  31  33
ATOM     33  O   UNL     1      21.814  25.932  18.352  1.00  0.00    -0.477 OA
ATOM     34  H   UNL     1      22.528  26.203  19.028  1.00  0.00     0.297 HD
ENDBRANCH  31  33
ENDBRANCH  22  31
ENDBRANCH   9  11
ENDBRANCH   1   5
BRANCH   2  35
ATOM     35  C   UNL     1      22.226  11.594  16.361  1.00  0.00     0.168 C 
ATOM     36  C   UNL     1      21.527  11.217  15.067  1.00  0.00     0.041 C 
BRANCH  35  37
ATOM     37  N   UNL     1      21.614  10.920  17.478  1.00  0.00    -0.343 N 
ATOM     38  C   UNL     1      22.395  10.691  18.642  1.00  0.00     0.237 C 
ATOM     39  H   UNL     1      20.614  10.611  17.414  1.00  0.00     0.164 HD
ATOM     40  O   UNL     1      23.575  11.083  18.654  1.00  0.00    -0.273 OA
BRANCH  38  41
ATOM     41  C   UNL     1      21.830  10.002  19.829  1.00  0.00     0.138 C 
ATOM     42  C   UNL     1      21.167   8.705  19.401  1.00  0.00     0.035 C 
BRANCH  41  43
ATOM     43  N   UNL     1      20.875  10.850  20.490  1.00  0.00    -0.320 NA
ATOM     44  H   UNL     1      20.421  11.455  19.776  1.00  0.00     0.119 HD
ATOM     45  H   UNL     1      20.121  10.292  20.945  1.00  0.00     0.119 HD
ENDBRANCH  41  43
ENDBRANCH  38  41
ENDBRANCH  35  37
ENDBRANCH   2  35
TORSDOF 9
ENDMDL
MODEL 7
REMARK VINA RESULT:    -9.548      5.786     10.328
REMARK INTER + INTRA:         -15.087
REMARK INTER:                 -13.708
REMARK INTRA:                  -1.379
REMARK UNBOUND:                -1.074
REMARK SMILES C[C@H](N)C(=O)N[C@@H](C)C(=O)N[C@H]1[C@@H]2CN(c3nc4c(cc3F)c(=O)c(C(=O)O)cn4-c3ccc(F)cc3F)C[C@@H]21
REMARK SMILES IDX 11 1 9 2 10 3 12 5 13 6 14 7 40 8 15 9 39 10 16 11 17 12
REMARK SMILES IDX 21 13 18 14 20 15 22 16 19 17 30 18 23 19 29 20 24 21 25 22
REMARK SMILES IDX 31 23 32 24 37 25 33 26 36 27 38 28 34 29 35 30 26 31 27 32
REMARK SMILES IDX 28 33 7 35 8 36 6 37 4 38 5 40 2 41 1 42 3 43
REMARK H PARENT 11 4 28 34 6 39 3 44 3 45
REMARK Flexibility Score: inf
ROOT
ATOM      1  N   UNL     1      23.691  21.769  17.023  1.00  0.00    -0.351 N 
ATOM      2  C   UNL     1      23.991  22.477  18.224  1.00  0.00     0.242 C 
ATOM      3  O   UNL     1      24.102  21.857  19.315  1.00  0.00    -0.273 OA
ATOM      4  H   UNL     1      23.609  22.323  16.147  1.00  0.00     0.163 HD
ENDROOT
BRANCH   1   5
ATOM      5  C   UNL     1      23.499  20.347  16.956  1.00  0.00     0.092 C 
ATOM      6  C   UNL     1      22.214  19.872  16.389  1.00  0.00     0.038 C 
ATOM      7  C   UNL     1      21.740  18.521  16.773  1.00  0.00     0.124 C 
ATOM      8  C   UNL     1      23.451  19.722  15.613  1.00  0.00     0.038 C 
ATOM      9  N   UNL     1      22.691  17.564  16.271  1.00  0.00    -0.353 N 
ATOM     10  C   UNL     1      23.598  18.256  15.391  1.00  0.00     0.124 C 
BRANCH   9  11
ATOM     11  C   UNL     1      22.732  16.171  16.583  1.00  0.00     0.167 A 
ATOM     12  N   UNL     1      21.864  15.293  16.053  1.00  0.00    -0.209 NA
ATOM     13  C   UNL     1      23.704  15.741  17.463  1.00  0.00     0.166 A 
ATOM     14  C   UNL     1      21.960  13.980  16.398  1.00  0.00     0.151 A 
ATOM     15  C   UNL     1      23.840  14.422  17.841  1.00  0.00     0.059 A 
ATOM     16  F   UNL     1      24.577  16.629  17.995  1.00  0.00    -0.203 F 
ATOM     17  C   UNL     1      22.923  13.527  17.275  1.00  0.00     0.069 A 
ATOM     18  N   UNL     1      21.038  13.168  15.812  1.00  0.00    -0.297 N 
ATOM     19  C   UNL     1      22.954  12.188  17.573  1.00  0.00     0.205 A 
ATOM     20  C   UNL     1      21.101  11.862  16.129  1.00  0.00     0.113 A 
ATOM     21  O   UNL     1      23.815  11.764  18.362  1.00  0.00    -0.288 OA
ATOM     22  C   UNL     1      22.033  11.342  16.996  1.00  0.00     0.124 A 
BRANCH  18  23
ATOM     23  C   UNL     1      20.065  13.686  14.913  1.00  0.00     0.083 A 
ATOM     24  C   UNL     1      18.735  13.761  15.293  1.00  0.00     0.033 A 
ATOM     25  C   UNL     1      20.362  14.136  13.644  1.00  0.00     0.150 A 
ATOM     26  C   UNL     1      17.779  14.262  14.430  1.00  0.00     0.041 A 
ATOM     27  C   UNL     1      19.429  14.641  12.764  1.00  0.00     0.080 A 
ATOM     28  F   UNL     1      21.651  14.080  13.238  1.00  0.00    -0.205 F 
ATOM     29  C   UNL     1      18.099  14.702  13.175  1.00  0.00     0.126 A 
ATOM     30  F   UNL     1      17.160  15.200  12.316  1.00  0.00    -0.207 F 
ENDBRANCH  18  23
BRANCH  22  31
ATOM     31  C   UNL     1      22.085   9.920  17.329  1.00  0.00     0.341 C 
ATOM     32  O   UNL     1      21.089   9.339  17.828  1.00  0.00    -0.246 OA
BRANCH  31  33
ATOM     33  O   UNL     1      23.217   9.151  17.114  1.00  0.00    -0.477 OA
ATOM     34  H   UNL     1      23.360   8.253  17.576  1.00  0.00     0.297 HD
ENDBRANCH  31  33
ENDBRANCH  22  31
ENDBRANCH   9  11
ENDBRANCH   1   5
BRANCH   2  35
ATOM     35  C   UNL     1      24.166  23.954  18.154  1.00  0.00     0.168 C 
ATOM     36  C   UNL     1      22.902  24.665  18.603  1.00  0.00     0.041 C 
BRANCH  35  37
ATOM     37  N   UNL     1      24.530  24.368  16.823  1.00  0.00    -0.343 N 
ATOM     38  C   UNL     1      25.906  24.564  16.527  1.00  0.00     0.237 C 
ATOM     39  H   UNL     1      23.783  24.519  16.103  1.00  0.00     0.164 HD
ATOM     40  O   UNL     1      26.743  24.367  17.426  1.00  0.00    -0.273 OA
BRANCH  38  41
ATOM     41  C   UNL     1      26.354  24.991  15.178  1.00  0.00     0.138 C 
ATOM     42  C   UNL     1      25.268  25.823  14.518  1.00  0.00     0.035 C 
BRANCH  41  43
ATOM     43  N   UNL     1      26.657  23.844  14.367  1.00  0.00    -0.320 NA
ATOM     44  H   UNL     1      25.767  23.461  13.990  1.00  0.00     0.119 HD
ATOM     45  H   UNL     1      27.252  24.101  13.550  1.00  0.00     0.119 HD
ENDBRANCH  41  43
ENDBRANCH  38  41
ENDBRANCH  35  37
ENDBRANCH   2  35
TORSDOF 9
ENDMDL
MODEL 8
REMARK VINA RESULT:    -9.544      7.202     14.871
REMARK INTER + INTRA:         -15.081
REMARK INTER:                 -13.520
REMARK INTRA:                  -1.561
REMARK UNBOUND:                -1.074
REMARK SMILES C[C@H](N)C(=O)N[C@@H](C)C(=O)N[C@H]1[C@@H]2CN(c3nc4c(cc3F)c(=O)c(C(=O)O)cn4-c3ccc(F)cc3F)C[C@@H]21
REMARK SMILES IDX 11 1 9 2 10 3 12 5 13 6 14 7 40 8 15 9 39 10 16 11 17 12
REMARK SMILES IDX 21 13 18 14 20 15 22 16 19 17 30 18 23 19 29 20 24 21 25 22
REMARK SMILES IDX 31 23 32 24 37 25 33 26 36 27 38 28 34 29 35 30 26 31 27 32
REMARK SMILES IDX 28 33 7 35 8 36 6 37 4 38 5 40 2 41 1 42 3 43
REMARK H PARENT 11 4 28 34 6 39 3 44 3 45
REMARK Flexibility Score: inf
ROOT
ATOM      1  N   UNL     1      23.761  10.118  17.670  1.00  0.00    -0.351 N 
ATOM      2  C   UNL     1      23.555  11.515  17.869  1.00  0.00     0.242 C 
ATOM      3  O   UNL     1      23.332  11.965  19.023  1.00  0.00    -0.273 OA
ATOM      4  H   UNL     1      23.943   9.793  16.699  1.00  0.00     0.163 HD
ENDROOT
BRANCH   1   5
ATOM      5  C   UNL     1      23.732   9.144  18.726  1.00  0.00     0.092 C 
ATOM      6  C   UNL     1      22.737   8.052  18.601  1.00  0.00     0.038 C 
ATOM      7  C   UNL     1      22.295   7.367  19.838  1.00  0.00     0.124 C 
ATOM      8  C   UNL     1      24.162   7.763  18.400  1.00  0.00     0.038 C 
ATOM      9  N   UNL     1      23.439   6.702  20.404  1.00  0.00    -0.353 N 
ATOM     10  C   UNL     1      24.506   6.751  19.438  1.00  0.00     0.124 C 
BRANCH   9  11
ATOM     11  C   UNL     1      23.510   6.094  21.694  1.00  0.00     0.167 A 
ATOM     12  N   UNL     1      23.538   4.760  21.857  1.00  0.00    -0.209 NA
ATOM     13  C   UNL     1      23.547   6.927  22.793  1.00  0.00     0.166 A 
ATOM     14  C   UNL     1      23.604   4.250  23.116  1.00  0.00     0.151 A 
ATOM     15  C   UNL     1      23.613   6.457  24.088  1.00  0.00     0.059 A 
ATOM     16  F   UNL     1      23.518   8.271  22.625  1.00  0.00    -0.203 F 
ATOM     17  C   UNL     1      23.641   5.063  24.229  1.00  0.00     0.069 A 
ATOM     18  N   UNL     1      23.627   2.891  23.181  1.00  0.00    -0.297 N 
ATOM     19  C   UNL     1      23.706   4.473  25.466  1.00  0.00     0.205 A 
ATOM     20  C   UNL     1      23.690   2.349  24.410  1.00  0.00     0.113 A 
ATOM     21  O   UNL     1      23.740   5.191  26.479  1.00  0.00    -0.288 OA
ATOM     22  C   UNL     1      23.730   3.099  25.562  1.00  0.00     0.124 A 
BRANCH  18  23
ATOM     23  C   UNL     1      23.586   2.097  22.001  1.00  0.00     0.083 A 
ATOM     24  C   UNL     1      22.370   1.701  21.469  1.00  0.00     0.033 A 
ATOM     25  C   UNL     1      24.712   1.677  21.325  1.00  0.00     0.150 A 
ATOM     26  C   UNL     1      22.315   0.930  20.323  1.00  0.00     0.041 A 
ATOM     27  C   UNL     1      24.686   0.909  20.181  1.00  0.00     0.080 A 
ATOM     28  F   UNL     1      25.918   2.044  21.814  1.00  0.00    -0.205 F 
ATOM     29  C   UNL     1      23.447   0.526  19.670  1.00  0.00     0.126 A 
ATOM     30  F   UNL     1      23.402  -0.236  18.537  1.00  0.00    -0.207 F 
ENDBRANCH  18  23
BRANCH  22  31
ATOM     31  C   UNL     1      23.798   2.492  26.889  1.00  0.00     0.341 C 
ATOM     32  O   UNL     1      23.115   1.474  27.168  1.00  0.00    -0.246 OA
BRANCH  31  33
ATOM     33  O   UNL     1      24.607   2.998  27.894  1.00  0.00    -0.477 OA
ATOM     34  H   UNL     1      25.128   3.869  27.784  1.00  0.00     0.297 HD
ENDBRANCH  31  33
ENDBRANCH  22  31
ENDBRANCH   9  11
ENDBRANCH   1   5
BRANCH   2  35
ATOM     35  C   UNL     1      23.612  12.418  16.686  1.00  0.00     0.168 C 
ATOM     36  C   UNL     1      24.467  13.637  16.984  1.00  0.00     0.041 C 
BRANCH  35  37
ATOM     37  N   UNL     1      22.289  12.819  16.279  1.00  0.00    -0.343 N 
ATOM     38  C   UNL     1      21.512  11.910  15.512  1.00  0.00     0.237 C 
ATOM     39  H   UNL     1      21.926  13.764  16.550  1.00  0.00     0.164 HD
ATOM     40  O   UNL     1      22.002  10.804  15.223  1.00  0.00    -0.273 OA
BRANCH  38  41
ATOM     41  C   UNL     1      20.142  12.257  15.057  1.00  0.00     0.138 C 
ATOM     42  C   UNL     1      19.766  13.636  15.569  1.00  0.00     0.035 C 
BRANCH  41  43
ATOM     43  N   UNL     1      19.199  11.280  15.530  1.00  0.00    -0.320 NA
ATOM     44  H   UNL     1      19.509  10.947  16.465  1.00  0.00     0.119 HD
ATOM     45  H   UNL     1      18.250  11.696  15.651  1.00  0.00     0.119 HD
ENDBRANCH  41  43
ENDBRANCH  38  41
ENDBRANCH  35  37
ENDBRANCH   2  35
TORSDOF 9
ENDMDL
MODEL 9
REMARK VINA RESULT:    -9.440      6.063      9.415
REMARK INTER + INTRA:         -14.928
REMARK INTER:                 -13.689
REMARK INTRA:                  -1.239
REMARK UNBOUND:                -1.074
REMARK SMILES C[C@H](N)C(=O)N[C@@H](C)C(=O)N[C@H]1[C@@H]2CN(c3nc4c(cc3F)c(=O)c(C(=O)O)cn4-c3ccc(F)cc3F)C[C@@H]21
REMARK SMILES IDX 11 1 9 2 10 3 12 5 13 6 14 7 40 8 15 9 39 10 16 11 17 12
REMARK SMILES IDX 21 13 18 14 20 15 22 16 19 17 30 18 23 19 29 20 24 21 25 22
REMARK SMILES IDX 31 23 32 24 37 25 33 26 36 27 38 28 34 29 35 30 26 31 27 32
REMARK SMILES IDX 28 33 7 35 8 36 6 37 4 38 5 40 2 41 1 42 3 43
REMARK H PARENT 11 4 28 34 6 39 3 44 3 45
REMARK Flexibility Score: inf
ROOT
ATOM      1  N   UNL     1      23.385  21.233  17.366  1.00  0.00    -0.351 N 
ATOM      2  C   UNL     1      23.262  22.607  17.003  1.00  0.00     0.242 C 
ATOM      3  O   UNL     1      22.328  22.981  16.246  1.00  0.00    -0.273 OA
ATOM      4  H   UNL     1      24.172  20.971  17.994  1.00  0.00     0.163 HD
ENDROOT
BRANCH   1   5
ATOM      5  C   UNL     1      22.492  20.201  16.918  1.00  0.00     0.092 C 
ATOM      6  C   UNL     1      23.070  19.145  16.053  1.00  0.00     0.038 C 
ATOM      7  C   UNL     1      22.155  18.403  15.154  1.00  0.00     0.124 C 
ATOM      8  C   UNL     1      22.707  18.831  17.440  1.00  0.00     0.038 C 
ATOM      9  N   UNL     1      21.226  17.675  15.979  1.00  0.00    -0.353 N 
ATOM     10  C   UNL     1      21.684  17.752  17.342  1.00  0.00     0.124 C 
BRANCH   9  11
ATOM     11  C   UNL     1      20.054  16.992  15.530  1.00  0.00     0.167 A 
ATOM     12  N   UNL     1      19.971  15.651  15.508  1.00  0.00    -0.209 NA
ATOM     13  C   UNL     1      18.988  17.760  15.109  1.00  0.00     0.166 A 
ATOM     14  C   UNL     1      18.825  15.068  15.066  1.00  0.00     0.151 A 
ATOM     15  C   UNL     1      17.807  17.214  14.652  1.00  0.00     0.059 A 
ATOM     16  F   UNL     1      19.076  19.112  15.132  1.00  0.00    -0.203 F 
ATOM     17  C   UNL     1      17.747  15.815  14.640  1.00  0.00     0.069 A 
ATOM     18  N   UNL     1      18.835  13.708  15.079  1.00  0.00    -0.297 N 
ATOM     19  C   UNL     1      16.626  15.153  14.206  1.00  0.00     0.205 A 
ATOM     20  C   UNL     1      17.719  13.094  14.647  1.00  0.00     0.113 A 
ATOM     21  O   UNL     1      15.646  15.810  13.819  1.00  0.00    -0.288 OA
ATOM     22  C   UNL     1      16.607  13.775  14.208  1.00  0.00     0.124 A 
BRANCH  18  23
ATOM     23  C   UNL     1      19.974  12.984  15.529  1.00  0.00     0.083 A 
ATOM     24  C   UNL     1      19.973  12.391  16.782  1.00  0.00     0.033 A 
ATOM     25  C   UNL     1      21.121  12.823  14.782  1.00  0.00     0.150 A 
ATOM     26  C   UNL     1      21.072  11.684  17.232  1.00  0.00     0.041 A 
ATOM     27  C   UNL     1      22.230  12.124  15.206  1.00  0.00     0.080 A 
ATOM     28  F   UNL     1      21.160  13.387  13.553  1.00  0.00    -0.205 F 
ATOM     29  C   UNL     1      22.199  11.540  16.471  1.00  0.00     0.126 A 
ATOM     30  F   UNL     1      23.290  10.843  16.909  1.00  0.00    -0.207 F 
ENDBRANCH  18  23
BRANCH  22  31
ATOM     31  C   UNL     1      15.404  13.091  13.742  1.00  0.00     0.341 C 
ATOM     32  O   UNL     1      14.517  12.723  14.554  1.00  0.00    -0.246 OA
BRANCH  31  33
ATOM     33  O   UNL     1      15.180  12.816  12.403  1.00  0.00    -0.477 OA
ATOM     34  H   UNL     1      14.971  13.550  11.726  1.00  0.00     0.297 HD
ENDBRANCH  31  33
ENDBRANCH  22  31
ENDBRANCH   9  11
ENDBRANCH   1   5
BRANCH   2  35
ATOM     35  C   UNL     1      24.258  23.576  17.538  1.00  0.00     0.168 C 
ATOM     36  C   UNL     1      23.645  24.417  18.644  1.00  0.00     0.041 C 
BRANCH  35  37
ATOM     37  N   UNL     1      24.771  24.421  16.490  1.00  0.00    -0.343 N 
ATOM     38  C   UNL     1      26.161  24.715  16.476  1.00  0.00     0.237 C 
ATOM     39  H   UNL     1      24.118  24.803  15.764  1.00  0.00     0.164 HD
ATOM     40  O   UNL     1      26.881  24.230  17.367  1.00  0.00    -0.273 OA
BRANCH  38  41
ATOM     41  C   UNL     1      26.758  25.579  15.428  1.00  0.00     0.138 C 
ATOM     42  C   UNL     1      28.179  25.949  15.817  1.00  0.00     0.035 C 
BRANCH  41  43
ATOM     43  N   UNL     1      25.969  26.768  15.253  1.00  0.00    -0.320 NA
ATOM     44  H   UNL     1      24.985  26.553  15.514  1.00  0.00     0.119 HD
ATOM     45  H   UNL     1      26.293  27.536  15.881  1.00  0.00     0.119 HD
ENDBRANCH  41  43
ENDBRANCH  38  41
ENDBRANCH  35  37
ENDBRANCH   2  35
TORSDOF 9
ENDMDL
MODEL 10
REMARK VINA RESULT:    -9.345     10.870     15.290
REMARK INTER + INTRA:         -14.790
REMARK INTER:                 -13.563
REMARK INTRA:                  -1.226
REMARK UNBOUND:                -1.074
REMARK SMILES C[C@H](N)C(=O)N[C@@H](C)C(=O)N[C@H]1[C@@H]2CN(c3nc4c(cc3F)c(=O)c(C(=O)O)cn4-c3ccc(F)cc3F)C[C@@H]21
REMARK SMILES IDX 11 1 9 2 10 3 12 5 13 6 14 7 40 8 15 9 39 10 16 11 17 12
REMARK SMILES IDX 21 13 18 14 20 15 22 16 19 17 30 18 23 19 29 20 24 21 25 22
REMARK SMILES IDX 31 23 32 24 37 25 33 26 36 27 38 28 34 29 35 30 26 31 27 32
REMARK SMILES IDX 28 33 7 35 8 36 6 37 4 38 5 40 2 41 1 42 3 43
REMARK H PARENT 11 4 28 34 6 39 3 44 3 45
REMARK Flexibility Score: inf
ROOT
ATOM      1  N   UNL     1      27.709  26.772  10.822  1.00  0.00    -0.351 N 
ATOM      2  C   UNL     1      28.777  27.649  11.173  1.00  0.00     0.242 C 
ATOM      3  O   UNL     1      29.405  27.483  12.252  1.00  0.00    -0.273 OA
ATOM      4  H   UNL     1      27.220  26.948   9.920  1.00  0.00     0.163 HD
ENDROOT
BRANCH   1   5
ATOM      5  C   UNL     1      27.275  25.670  11.635  1.00  0.00     0.092 C 
ATOM      6  C   UNL     1      26.442  25.998  12.817  1.00  0.00     0.038 C 
ATOM      7  C   UNL     1      26.421  25.035  13.943  1.00  0.00     0.124 C 
ATOM      8  C   UNL     1      25.826  25.355  11.650  1.00  0.00     0.038 C 
ATOM      9  N   UNL     1      25.835  23.811  13.461  1.00  0.00    -0.353 N 
ATOM     10  C   UNL     1      25.278  24.066  12.158  1.00  0.00     0.124 C 
BRANCH   9  11
ATOM     11  C   UNL     1      25.804  22.561  14.152  1.00  0.00     0.167 A 
ATOM     12  N   UNL     1      25.154  22.403  15.318  1.00  0.00    -0.209 NA
ATOM     13  C   UNL     1      26.473  21.498  13.581  1.00  0.00     0.166 A 
ATOM     14  C   UNL     1      25.168  21.184  15.921  1.00  0.00     0.151 A 
ATOM     15  C   UNL     1      26.516  20.245  14.156  1.00  0.00     0.059 A 
ATOM     16  F   UNL     1      27.128  21.662  12.407  1.00  0.00    -0.203 F 
ATOM     17  C   UNL     1      25.831  20.108  15.370  1.00  0.00     0.069 A 
ATOM     18  N   UNL     1      24.485  21.121  17.096  1.00  0.00    -0.297 N 
ATOM     19  C   UNL     1      25.800  18.910  16.040  1.00  0.00     0.205 A 
ATOM     20  C   UNL     1      24.477  19.932  17.724  1.00  0.00     0.113 A 
ATOM     21  O   UNL     1      26.393  17.931  15.558  1.00  0.00    -0.288 OA
ATOM     22  C   UNL     1      25.116  18.817  17.232  1.00  0.00     0.124 A 
BRANCH  18  23
ATOM     23  C   UNL     1      23.817  22.262  17.622  1.00  0.00     0.083 A 
ATOM     24  C   UNL     1      24.547  23.325  18.128  1.00  0.00     0.033 A 
ATOM     25  C   UNL     1      22.445  22.391  17.664  1.00  0.00     0.150 A 
ATOM     26  C   UNL     1      23.911  24.440  18.641  1.00  0.00     0.041 A 
ATOM     27  C   UNL     1      21.786  23.490  18.169  1.00  0.00     0.080 A 
ATOM     28  F   UNL     1      21.698  21.373  17.178  1.00  0.00    -0.205 F 
ATOM     29  C   UNL     1      22.548  24.544  18.673  1.00  0.00     0.126 A 
ATOM     30  F   UNL     1      21.912  25.642  19.178  1.00  0.00    -0.207 F 
ENDBRANCH  18  23
BRANCH  22  31
ATOM     31  C   UNL     1      25.097  17.533  17.929  1.00  0.00     0.341 C 
ATOM     32  O   UNL     1      25.494  17.439  19.118  1.00  0.00    -0.246 OA
BRANCH  31  33
ATOM     33  O   UNL     1      24.647  16.370  17.324  1.00  0.00    -0.477 OA
ATOM     34  H   UNL     1      25.054  15.458  17.532  1.00  0.00     0.297 HD
ENDBRANCH  31  33
ENDBRANCH  22  31
ENDBRANCH   9  11
ENDBRANCH   1   5
BRANCH   2  35
ATOM     35  C   UNL     1      29.126  28.754  10.238  1.00  0.00     0.168 C 
ATOM     36  C   UNL     1      28.458  30.048  10.667  1.00  0.00     0.041 C 
BRANCH  35  37
ATOM     37  N   UNL     1      28.757  28.423   8.885  1.00  0.00    -0.343 N 
ATOM     38  C   UNL     1      29.760  27.921   8.014  1.00  0.00     0.237 C 
ATOM     39  H   UNL     1      27.767  28.557   8.568  1.00  0.00     0.164 HD
ATOM     40  O   UNL     1      30.917  27.785   8.452  1.00  0.00    -0.273 OA
BRANCH  38  41
ATOM     41  C   UNL     1      29.453  27.560   6.607  1.00  0.00     0.138 C 
ATOM     42  C   UNL     1      29.038  26.101   6.532  1.00  0.00     0.035 C 
BRANCH  41  43
ATOM     43  N   UNL     1      30.600  27.790   5.772  1.00  0.00    -0.320 NA
ATOM     44  H   UNL     1      30.333  28.458   5.020  1.00  0.00     0.119 HD
ATOM     45  H   UNL     1      31.380  28.228   6.308  1.00  0.00     0.119 HD
ENDBRANCH  41  43
ENDBRANCH  38  41
ENDBRANCH  35  37
ENDBRANCH   2  35
TORSDOF 9
ENDMDL
