REMARK SMILES C[C@H](N)C(=O)N[C@@H](C)C(=O)N[C@H]1[C@@H]2CN(c3nc4c(cc3F)c(=O)c(C(=O)O)cn4-c3ccc(F)cc3F)C[C@@H]21
REMARK SMILES IDX 11 1 9 2 10 3 12 5 13 6 14 7 40 8 15 9 39 10 16 11 17 12
REMARK SMILES IDX 21 13 18 14 20 15 22 16 19 17 30 18 23 19 29 20 24 21 25 22
REMARK SMILES IDX 31 23 32 24 37 25 33 26 36 27 38 28 34 29 35 30 26 31 27 32
REMARK SMILES IDX 28 33 7 35 8 36 6 37 4 38 5 40 2 41 1 42 3 43
REMARK H PARENT 11 4 28 34 6 39 3 44 3 45
REMARK Flexibility Score: inf
ROOT
ATOM      1  N   UNL     1       3.181  -0.657   1.181  1.00  0.00    -0.351 N 
ATOM      2  C   UNL     1       4.329  -0.004   0.644  1.00  0.00     0.242 C 
ATOM      3  O   UNL     1       4.209   0.801  -0.317  1.00  0.00    -0.273 OA
ATOM      4  H   UNL     1       3.329  -1.313   1.975  1.00  0.00     0.163 HD
ENDROOT
BRANCH   1   5
ATOM      5  C   UNL     1       1.844  -0.461   0.693  1.00  0.00     0.092 C 
ATOM      6  C   UNL     1       0.940  -1.635   0.730  1.00  0.00     0.038 C 
ATOM      7  C   UNL     1      -0.207  -1.661  -0.208  1.00  0.00     0.124 C 
ATOM      8  C   UNL     1       0.736  -0.531   1.675  1.00  0.00     0.038 C 
ATOM      9  N   UNL     1      -1.079  -0.568   0.136  1.00  0.00    -0.353 N 
ATOM     10  C   UNL     1      -0.636  -0.023   1.393  1.00  0.00     0.124 C 
BRANCH   9  11
ATOM     11  C   UNL     1      -2.192  -0.103  -0.629  1.00  0.00     0.167 A 
ATOM     12  N   UNL     1      -3.444  -0.096  -0.140  1.00  0.00    -0.209 NA
ATOM     13  C   UNL     1      -1.945   0.346  -1.910  1.00  0.00     0.166 A 
ATOM     14  C   UNL     1      -4.457   0.359  -0.926  1.00  0.00     0.151 A 
ATOM     15  C   UNL     1      -2.939   0.815  -2.743  1.00  0.00     0.059 A 
ATOM     16  F   UNL     1      -0.682   0.336  -2.399  1.00  0.00    -0.203 F 
ATOM     17  C   UNL     1      -4.234   0.812  -2.209  1.00  0.00     0.069 A 
ATOM     18  N   UNL     1      -5.687   0.327  -0.346  1.00  0.00    -0.297 N 
ATOM     19  C   UNL     1      -5.308   1.254  -2.940  1.00  0.00     0.205 A 
ATOM     20  C   UNL     1      -6.715   0.768  -1.093  1.00  0.00     0.113 A 
ATOM     21  O   UNL     1      -5.125   1.665  -4.098  1.00  0.00    -0.288 OA
ATOM     22  C   UNL     1      -6.566   1.233  -2.379  1.00  0.00     0.124 A 
BRANCH  18  23
ATOM     23  C   UNL     1      -5.863  -0.150   0.983  1.00  0.00     0.083 A 
ATOM     24  C   UNL     1      -6.434   0.666   1.946  1.00  0.00     0.033 A 
ATOM     25  C   UNL     1      -5.493  -1.412   1.396  1.00  0.00     0.150 A 
ATOM     26  C   UNL     1      -6.612   0.216   3.241  1.00  0.00     0.041 A 
ATOM     27  C   UNL     1      -5.659  -1.886   2.679  1.00  0.00     0.080 A 
ATOM     28  F   UNL     1      -4.933  -2.238   0.483  1.00  0.00    -0.205 F 
ATOM     29  C   UNL     1      -6.236  -1.041   3.626  1.00  0.00     0.126 A 
ATOM     30  F   UNL     1      -6.408  -1.494   4.904  1.00  0.00    -0.207 F 
ENDBRANCH  18  23
BRANCH  22  31
ATOM     31  C   UNL     1      -7.695   1.708  -3.175  1.00  0.00     0.341 C 
ATOM     32  O   UNL     1      -7.525   2.130  -4.347  1.00  0.00    -0.246 OA
BRANCH  31  33
ATOM     33  O   UNL     1      -8.992   1.718  -2.687  1.00  0.00    -0.477 OA
ATOM     34  H   UNL     1      -9.802   1.812  -3.300  1.00  0.00     0.297 HD
ENDBRANCH  31  33
ENDBRANCH  22  31
ENDBRANCH   9  11
ENDBRANCH   1   5
BRANCH   2  35
ATOM     35  C   UNL     1       5.660  -0.297   1.244  1.00  0.00     0.168 C 
ATOM     36  C   UNL     1       5.657   0.014   2.730  1.00  0.00     0.041 C 
BRANCH  35  37
ATOM     37  N   UNL     1       6.701   0.444   0.578  1.00  0.00    -0.343 N 
ATOM     38  C   UNL     1       7.721  -0.279  -0.097  1.00  0.00     0.237 C 
ATOM     39  H   UNL     1       6.691   1.492   0.603  1.00  0.00     0.164 HD
ATOM     40  O   UNL     1       7.675  -1.522  -0.089  1.00  0.00    -0.273 OA
BRANCH  38  41
ATOM     41  C   UNL     1       8.825   0.418  -0.803  1.00  0.00     0.138 C 
ATOM     42  C   UNL     1       8.253   1.329  -1.875  1.00  0.00     0.035 C 
BRANCH  41  43
ATOM     43  N   UNL     1       9.720  -0.539  -1.395  1.00  0.00    -0.320 NA
ATOM     44  H   UNL     1       9.776  -1.369  -0.771  1.00  0.00     0.119 HD
ATOM     45  H   UNL     1       9.366  -0.871  -2.318  1.00  0.00     0.119 HD
ENDBRANCH  41  43
ENDBRANCH  38  41
ENDBRANCH  35  37
ENDBRANCH   2  35
TORSDOF 9
