MODEL 1
REMARK VINA RESULT:   -11.550      0.000      0.000
REMARK INTER + INTRA:         -16.961
REMARK INTER:                 -15.694
REMARK INTRA:                  -1.267
REMARK UNBOUND:                -1.360
REMARK SMILES CN1CCC[C@H]1CCNC(=O)c1cn2c3c(c(N4CC[C@@H](c5cnccn5)C4)c(F)cc3c1=O)Oc1cc3ccccc3cc1-2
REMARK SMILES IDX 9 1 10 2 11 3 8 5 7 6 6 7 1 8 2 9 3 10 4 11 5 12 12 13 13 14
REMARK SMILES IDX 33 15 14 16 32 17 34 18 45 19 15 20 31 21 36 22 44 23 16 24
REMARK SMILES IDX 29 25 35 26 37 27 43 28 17 29 30 30 38 31 42 32 39 33 41 34
REMARK SMILES IDX 40 35 18 36 19 37 28 38 20 39 21 40 22 41 23 42 27 43 24 44
REMARK SMILES IDX 26 45 25 46
REMARK H PARENT 9 4
REMARK Flexibility Score: inf
ROOT
ATOM      1  N   UNL     1      24.058  11.489  16.799  1.00  0.00    -0.352 N 
ATOM      2  C   UNL     1      23.111  12.252  16.112  1.00  0.00     0.256 C 
ATOM      3  O   UNL     1      22.318  11.600  15.344  1.00  0.00    -0.269 OA
ATOM      4  H   UNL     1      24.737  11.900  17.443  1.00  0.00     0.163 HD
ENDROOT
BRANCH   1   5
ATOM      5  C   UNL     1      24.093  10.031  16.605  1.00  0.00     0.118 C 
BRANCH   5   6
ATOM      6  C   UNL     1      23.303   9.352  17.680  1.00  0.00     0.040 C 
BRANCH   6   7
ATOM      7  C   UNL     1      23.614   9.968  19.009  1.00  0.00     0.058 C 
ATOM      8  C   UNL     1      21.316  10.566  19.098  1.00  0.00     0.105 C 
ATOM      9  N   UNL     1      22.434  10.064  19.845  1.00  0.00    -0.303 NA
ATOM     10  C   UNL     1      22.256   8.732  20.343  1.00  0.00     0.084 C 
ATOM     11  C   UNL     1      23.674   8.421  20.831  1.00  0.00     0.017 C 
ATOM     12  C   UNL     1      24.551   9.091  19.791  1.00  0.00     0.020 C 
ENDBRANCH   6   7
ENDBRANCH   5   6
ENDBRANCH   1   5
BRANCH   2  13
ATOM     13  C   UNL     1      22.967  13.699  16.208  1.00  0.00     0.104 A 
ATOM     14  C   UNL     1      21.728  14.269  15.916  1.00  0.00     0.110 A 
ATOM     15  C   UNL     1      23.954  14.559  16.577  1.00  0.00     0.202 A 
ATOM     16  N   UNL     1      21.510  15.588  15.991  1.00  0.00    -0.309 N 
ATOM     17  C   UNL     1      23.734  15.931  16.656  1.00  0.00     0.054 A 
ATOM     18  O   UNL     1      25.090  14.164  16.857  1.00  0.00    -0.288 OA
ATOM     19  C   UNL     1      20.213  16.108  15.677  1.00  0.00     0.089 A 
ATOM     20  C   UNL     1      22.499  16.463  16.362  1.00  0.00     0.102 A 
ATOM     21  C   UNL     1      24.757  16.778  17.033  1.00  0.00     0.056 A 
ATOM     22  C   UNL     1      20.020  17.486  15.766  1.00  0.00     0.152 A 
ATOM     23  C   UNL     1      19.202  15.261  15.303  1.00  0.00     0.039 A 
ATOM     24  C   UNL     1      22.260  17.821  16.434  1.00  0.00     0.178 A 
ATOM     25  C   UNL     1      24.520  18.142  17.106  1.00  0.00     0.151 A 
ATOM     26  O   UNL     1      21.024  18.363  16.140  1.00  0.00    -0.451 OA
ATOM     27  C   UNL     1      18.749  17.968  15.455  1.00  0.00     0.058 A 
ATOM     28  C   UNL     1      17.942  15.763  14.998  1.00  0.00    -0.016 A 
ATOM     29  C   UNL     1      23.298  18.682  16.817  1.00  0.00     0.119 A 
ATOM     30  F   UNL     1      25.582  18.895  17.474  1.00  0.00    -0.205 F 
ATOM     31  C   UNL     1      17.732  17.122  15.079  1.00  0.00    -0.015 A 
ATOM     32  C   UNL     1      16.955  14.879  14.628  1.00  0.00     0.009 A 
ATOM     33  C   UNL     1      16.460  17.577  14.767  1.00  0.00     0.009 A 
ATOM     34  C   UNL     1      15.697  15.354  14.321  1.00  0.00     0.001 A 
ATOM     35  C   UNL     1      15.457  16.698  14.392  1.00  0.00     0.001 A 
BRANCH  29  36
ATOM     36  N   UNL     1      23.050  20.110  16.895  1.00  0.00    -0.365 N 
ATOM     37  C   UNL     1      22.981  20.917  18.071  1.00  0.00     0.117 C 
ATOM     38  C   UNL     1      22.841  20.966  15.738  1.00  0.00     0.126 C 
ATOM     39  C   UNL     1      22.230  22.147  17.708  1.00  0.00     0.033 C 
ATOM     40  C   UNL     1      22.671  22.367  16.272  1.00  0.00     0.061 C 
BRANCH  40  41
ATOM     41  C   UNL     1      23.905  23.169  16.258  1.00  0.00     0.064 A 
ATOM     42  C   UNL     1      24.426  23.573  15.034  1.00  0.00     0.135 A 
ATOM     43  N   UNL     1      24.580  23.553  17.352  1.00  0.00    -0.258 NA
ATOM     44  N   UNL     1      25.548  24.310  14.951  1.00  0.00    -0.261 NA
ATOM     45  C   UNL     1      25.711  24.295  17.278  1.00  0.00     0.131 A 
ATOM     46  C   UNL     1      26.219  24.690  16.063  1.00  0.00     0.131 A 
ENDBRANCH  40  41
ENDBRANCH  29  36
ENDBRANCH   2  13
TORSDOF 6
ENDMDL
MODEL 2
REMARK VINA RESULT:   -11.496      3.477      7.392
REMARK INTER + INTRA:         -16.888
REMARK INTER:                 -15.640
REMARK INTRA:                  -1.248
REMARK UNBOUND:                -1.360
REMARK SMILES CN1CCC[C@H]1CCNC(=O)c1cn2c3c(c(N4CC[C@@H](c5cnccn5)C4)c(F)cc3c1=O)Oc1cc3ccccc3cc1-2
REMARK SMILES IDX 9 1 10 2 11 3 8 5 7 6 6 7 1 8 2 9 3 10 4 11 5 12 12 13 13 14
REMARK SMILES IDX 33 15 14 16 32 17 34 18 45 19 15 20 31 21 36 22 44 23 16 24
REMARK SMILES IDX 29 25 35 26 37 27 43 28 17 29 30 30 38 31 42 32 39 33 41 34
REMARK SMILES IDX 40 35 18 36 19 37 28 38 20 39 21 40 22 41 23 42 27 43 24 44
REMARK SMILES IDX 26 45 25 46
REMARK H PARENT 9 4
REMARK Flexibility Score: inf
ROOT
ATOM      1  N   UNL     1      23.807  10.793  19.077  1.00  0.00    -0.352 N 
ATOM      2  C   UNL     1      23.605  11.057  17.720  1.00  0.00     0.256 C 
ATOM      3  O   UNL     1      24.311  10.363  16.905  1.00  0.00    -0.269 OA
ATOM      4  H   UNL     1      23.297  11.279  19.817  1.00  0.00     0.163 HD
ENDROOT
BRANCH   1   5
ATOM      5  C   UNL     1      24.789   9.773  19.479  1.00  0.00     0.118 C 
BRANCH   5   6
ATOM      6  C   UNL     1      24.090   8.489  19.803  1.00  0.00     0.040 C 
BRANCH   6   7
ATOM      7  C   UNL     1      25.032   7.338  19.628  1.00  0.00     0.058 C 
ATOM      8  C   UNL     1      24.625   6.854  21.919  1.00  0.00     0.105 C 
ATOM      9  N   UNL     1      24.793   6.296  20.607  1.00  0.00    -0.303 NA
ATOM     10  C   UNL     1      23.636   5.613  20.108  1.00  0.00     0.084 C 
ATOM     11  C   UNL     1      24.047   5.391  18.650  1.00  0.00     0.017 C 
ATOM     12  C   UNL     1      24.798   6.662  18.305  1.00  0.00     0.020 C 
ENDBRANCH   6   7
ENDBRANCH   5   6
ENDBRANCH   1   5
BRANCH   2  13
ATOM     13  C   UNL     1      22.670  12.038  17.184  1.00  0.00     0.104 A 
ATOM     14  C   UNL     1      22.973  13.392  17.319  1.00  0.00     0.110 A 
ATOM     15  C   UNL     1      21.510  11.740  16.539  1.00  0.00     0.202 A 
ATOM     16  N   UNL     1      22.173  14.356  16.845  1.00  0.00    -0.309 N 
ATOM     17  C   UNL     1      20.674  12.737  16.045  1.00  0.00     0.054 A 
ATOM     18  O   UNL     1      21.144  10.574  16.364  1.00  0.00    -0.288 OA
ATOM     19  C   UNL     1      22.543  15.729  17.018  1.00  0.00     0.089 A 
ATOM     20  C   UNL     1      21.001  14.065  16.194  1.00  0.00     0.102 A 
ATOM     21  C   UNL     1      19.503  12.402  15.396  1.00  0.00     0.056 A 
ATOM     22  C   UNL     1      21.688  16.707  16.512  1.00  0.00     0.152 A 
ATOM     23  C   UNL     1      23.708  16.054  17.664  1.00  0.00     0.039 A 
ATOM     24  C   UNL     1      20.186  15.070  15.711  1.00  0.00     0.178 A 
ATOM     25  C   UNL     1      18.682  13.409  14.910  1.00  0.00     0.151 A 
ATOM     26  O   UNL     1      20.506  16.406  15.856  1.00  0.00    -0.451 OA
ATOM     27  C   UNL     1      22.069  18.036  16.693  1.00  0.00     0.058 A 
ATOM     28  C   UNL     1      24.068  17.385  17.833  1.00  0.00    -0.016 A 
ATOM     29  C   UNL     1      18.996  14.731  15.051  1.00  0.00     0.119 A 
ATOM     30  F   UNL     1      17.552  12.987  14.297  1.00  0.00    -0.205 F 
ATOM     31  C   UNL     1      23.236  18.367  17.341  1.00  0.00    -0.015 A 
ATOM     32  C   UNL     1      25.246  17.668  18.487  1.00  0.00     0.009 A 
ATOM     33  C   UNL     1      23.637  19.680  17.531  1.00  0.00     0.009 A 
ATOM     34  C   UNL     1      25.625  18.982  18.665  1.00  0.00     0.001 A 
ATOM     35  C   UNL     1      24.820  19.978  18.188  1.00  0.00     0.001 A 
BRANCH  29  36
ATOM     36  N   UNL     1      18.137  15.785  14.541  1.00  0.00    -0.365 N 
ATOM     37  C   UNL     1      18.262  16.484  13.302  1.00  0.00     0.117 C 
ATOM     38  C   UNL     1      16.966  16.292  15.240  1.00  0.00     0.126 C 
ATOM     39  C   UNL     1      17.508  17.757  13.447  1.00  0.00     0.033 C 
ATOM     40  C   UNL     1      16.352  17.332  14.335  1.00  0.00     0.061 C 
BRANCH  40  41
ATOM     41  C   UNL     1      15.252  16.827  13.497  1.00  0.00     0.064 A 
ATOM     42  C   UNL     1      14.838  17.584  12.407  1.00  0.00     0.135 A 
ATOM     43  N   UNL     1      14.605  15.670  13.702  1.00  0.00    -0.258 NA
ATOM     44  N   UNL     1      13.842  17.178  11.601  1.00  0.00    -0.261 NA
ATOM     45  C   UNL     1      13.601  15.253  12.895  1.00  0.00     0.131 A 
ATOM     46  C   UNL     1      13.198  16.008  11.819  1.00  0.00     0.131 A 
ENDBRANCH  40  41
ENDBRANCH  29  36
ENDBRANCH   2  13
TORSDOF 6
ENDMDL
MODEL 3
REMARK VINA RESULT:   -11.438      3.450      7.350
REMARK INTER + INTRA:         -16.810
REMARK INTER:                 -15.237
REMARK INTRA:                  -1.572
REMARK UNBOUND:                -1.360
REMARK SMILES CN1CCC[C@H]1CCNC(=O)c1cn2c3c(c(N4CC[C@@H](c5cnccn5)C4)c(F)cc3c1=O)Oc1cc3ccccc3cc1-2
REMARK SMILES IDX 9 1 10 2 11 3 8 5 7 6 6 7 1 8 2 9 3 10 4 11 5 12 12 13 13 14
REMARK SMILES IDX 33 15 14 16 32 17 34 18 45 19 15 20 31 21 36 22 44 23 16 24
REMARK SMILES IDX 29 25 35 26 37 27 43 28 17 29 30 30 38 31 42 32 39 33 41 34
REMARK SMILES IDX 40 35 18 36 19 37 28 38 20 39 21 40 22 41 23 42 27 43 24 44
REMARK SMILES IDX 26 45 25 46
REMARK H PARENT 9 4
REMARK Flexibility Score: inf
ROOT
ATOM      1  N   UNL     1      23.905   9.864  17.266  1.00  0.00    -0.352 N 
ATOM      2  C   UNL     1      23.541  11.082  17.847  1.00  0.00     0.256 C 
ATOM      3  O   UNL     1      24.077  11.342  18.982  1.00  0.00    -0.269 OA
ATOM      4  H   UNL     1      23.547   9.554  16.361  1.00  0.00     0.163 HD
ENDROOT
BRANCH   1   5
ATOM      5  C   UNL     1      24.848   8.979  17.970  1.00  0.00     0.118 C 
BRANCH   5   6
ATOM      6  C   UNL     1      24.100   7.890  18.675  1.00  0.00     0.040 C 
BRANCH   6   7
ATOM      7  C   UNL     1      23.943   8.235  20.124  1.00  0.00     0.058 C 
ATOM      8  C   UNL     1      21.609   8.342  19.688  1.00  0.00     0.105 C 
ATOM      9  N   UNL     1      22.618   7.908  20.612  1.00  0.00    -0.303 NA
ATOM     10  C   UNL     1      22.664   6.489  20.807  1.00  0.00     0.084 C 
ATOM     11  C   UNL     1      23.967   6.355  21.600  1.00  0.00     0.017 C 
ATOM     12  C   UNL     1      24.865   7.400  20.968  1.00  0.00     0.020 C 
ENDBRANCH   6   7
ENDBRANCH   5   6
ENDBRANCH   1   5
BRANCH   2  13
ATOM     13  C   UNL     1      22.620  12.049  17.264  1.00  0.00     0.104 A 
ATOM     14  C   UNL     1      22.928  13.406  17.357  1.00  0.00     0.110 A 
ATOM     15  C   UNL     1      21.468  11.735  16.613  1.00  0.00     0.202 A 
ATOM     16  N   UNL     1      22.140  14.357  16.839  1.00  0.00    -0.309 N 
ATOM     17  C   UNL     1      20.645  12.718  16.072  1.00  0.00     0.054 A 
ATOM     18  O   UNL     1      21.098  10.565  16.472  1.00  0.00    -0.288 OA
ATOM     19  C   UNL     1      22.515  15.732  16.970  1.00  0.00     0.089 A 
ATOM     20  C   UNL     1      20.976  14.049  16.180  1.00  0.00     0.102 A 
ATOM     21  C   UNL     1      19.482  12.367  15.418  1.00  0.00     0.056 A 
ATOM     22  C   UNL     1      21.672  16.697  16.418  1.00  0.00     0.152 A 
ATOM     23  C   UNL     1      23.672  16.074  17.622  1.00  0.00     0.039 A 
ATOM     24  C   UNL     1      20.174  15.041  15.651  1.00  0.00     0.178 A 
ATOM     25  C   UNL     1      18.673  13.360  14.885  1.00  0.00     0.151 A 
ATOM     26  O   UNL     1      20.499  16.379  15.756  1.00  0.00    -0.451 OA
ATOM     27  C   UNL     1      22.058  18.029  16.559  1.00  0.00     0.058 A 
ATOM     28  C   UNL     1      24.037  17.408  17.751  1.00  0.00    -0.016 A 
ATOM     29  C   UNL     1      18.992  14.686  14.986  1.00  0.00     0.119 A 
ATOM     30  F   UNL     1      17.550  12.924  14.270  1.00  0.00    -0.205 F 
ATOM     31  C   UNL     1      23.218  18.376  17.213  1.00  0.00    -0.015 A 
ATOM     32  C   UNL     1      25.207  17.708  18.412  1.00  0.00     0.009 A 
ATOM     33  C   UNL     1      23.623  19.693  17.365  1.00  0.00     0.009 A 
ATOM     34  C   UNL     1      25.590  19.025  18.551  1.00  0.00     0.001 A 
ATOM     35  C   UNL     1      24.798  20.008  18.028  1.00  0.00     0.001 A 
BRANCH  29  36
ATOM     36  N   UNL     1      18.146  15.725  14.428  1.00  0.00    -0.365 N 
ATOM     37  C   UNL     1      18.284  16.370  13.161  1.00  0.00     0.117 C 
ATOM     38  C   UNL     1      16.978  16.274  15.099  1.00  0.00     0.126 C 
ATOM     39  C   UNL     1      17.542  17.655  13.247  1.00  0.00     0.033 C 
ATOM     40  C   UNL     1      16.379  17.281  14.148  1.00  0.00     0.061 C 
BRANCH  40  41
ATOM     41  C   UNL     1      15.277  16.751  13.327  1.00  0.00     0.064 A 
ATOM     42  C   UNL     1      14.599  15.620  13.768  1.00  0.00     0.135 A 
ATOM     43  N   UNL     1      14.863  17.283  12.168  1.00  0.00    -0.258 NA
ATOM     44  N   UNL     1      13.583  15.087  13.068  1.00  0.00    -0.261 NA
ATOM     45  C   UNL     1      13.840  16.753  11.456  1.00  0.00     0.131 A 
ATOM     46  C   UNL     1      13.175  15.634  11.899  1.00  0.00     0.131 A 
ENDBRANCH  40  41
ENDBRANCH  29  36
ENDBRANCH   2  13
TORSDOF 6
ENDMDL
MODEL 4
REMARK VINA RESULT:   -11.165      3.216      9.709
REMARK INTER + INTRA:         -16.441
REMARK INTER:                 -14.868
REMARK INTRA:                  -1.573
REMARK UNBOUND:                -1.360
REMARK SMILES CN1CCC[C@H]1CCNC(=O)c1cn2c3c(c(N4CC[C@@H](c5cnccn5)C4)c(F)cc3c1=O)Oc1cc3ccccc3cc1-2
REMARK SMILES IDX 9 1 10 2 11 3 8 5 7 6 6 7 1 8 2 9 3 10 4 11 5 12 12 13 13 14
REMARK SMILES IDX 33 15 14 16 32 17 34 18 45 19 15 20 31 21 36 22 44 23 16 24
REMARK SMILES IDX 29 25 35 26 37 27 43 28 17 29 30 30 38 31 42 32 39 33 41 34
REMARK SMILES IDX 40 35 18 36 19 37 28 38 20 39 21 40 22 41 23 42 27 43 24 44
REMARK SMILES IDX 26 45 25 46
REMARK H PARENT 9 4
REMARK Flexibility Score: inf
ROOT
ATOM      1  N   UNL     1      23.983  17.954  17.931  1.00  0.00    -0.352 N 
ATOM      2  C   UNL     1      23.925  16.834  17.098  1.00  0.00     0.256 C 
ATOM      3  O   UNL     1      25.054  16.320  16.773  1.00  0.00    -0.269 OA
ATOM      4  H   UNL     1      23.148  18.442  18.260  1.00  0.00     0.163 HD
ENDROOT
BRANCH   1   5
ATOM      5  C   UNL     1      25.292  18.465  18.370  1.00  0.00     0.118 C 
BRANCH   5   6
ATOM      6  C   UNL     1      25.267  19.960  18.423  1.00  0.00     0.040 C 
BRANCH   6   7
ATOM      7  C   UNL     1      24.421  20.496  17.310  1.00  0.00     0.058 C 
ATOM      8  C   UNL     1      22.964  21.298  19.008  1.00  0.00     0.105 C 
ATOM      9  N   UNL     1      23.589  21.598  17.752  1.00  0.00    -0.303 NA
ATOM     10  C   UNL     1      24.489  22.713  17.795  1.00  0.00     0.084 C 
ATOM     11  C   UNL     1      25.156  22.591  16.423  1.00  0.00     0.017 C 
ATOM     12  C   UNL     1      25.282  21.092  16.231  1.00  0.00     0.020 C 
ENDBRANCH   6   7
ENDBRANCH   5   6
ENDBRANCH   1   5
BRANCH   2  13
ATOM     13  C   UNL     1      22.702  16.227  16.589  1.00  0.00     0.104 A 
ATOM     14  C   UNL     1      22.379  14.933  16.994  1.00  0.00     0.110 A 
ATOM     15  C   UNL     1      21.825  16.831  15.743  1.00  0.00     0.202 A 
ATOM     16  N   UNL     1      21.269  14.308  16.581  1.00  0.00    -0.309 N 
ATOM     17  C   UNL     1      20.669  16.188  15.309  1.00  0.00     0.054 A 
ATOM     18  O   UNL     1      22.012  17.977  15.320  1.00  0.00    -0.288 OA
ATOM     19  C   UNL     1      20.996  12.978  17.036  1.00  0.00     0.089 A 
ATOM     20  C   UNL     1      20.378  14.910  15.728  1.00  0.00     0.102 A 
ATOM     21  C   UNL     1      19.799  16.828  14.450  1.00  0.00     0.056 A 
ATOM     22  C   UNL     1      19.831  12.357  16.586  1.00  0.00     0.152 A 
ATOM     23  C   UNL     1      21.866  12.349  17.888  1.00  0.00     0.039 A 
ATOM     24  C   UNL     1      19.237  14.253  15.309  1.00  0.00     0.178 A 
ATOM     25  C   UNL     1      18.653  16.171  14.028  1.00  0.00     0.151 A 
ATOM     26  O   UNL     1      18.937  12.971  15.724  1.00  0.00    -0.451 OA
ATOM     27  C   UNL     1      19.588  11.063  17.042  1.00  0.00     0.058 A 
ATOM     28  C   UNL     1      21.603  11.057  18.331  1.00  0.00    -0.016 A 
ATOM     29  C   UNL     1      18.352  14.903  14.438  1.00  0.00     0.119 A 
ATOM     30  F   UNL     1      17.864  16.872  13.181  1.00  0.00    -0.205 F 
ATOM     31  C   UNL     1      20.457  10.427  17.898  1.00  0.00    -0.015 A 
ATOM     32  C   UNL     1      22.501  10.461  19.187  1.00  0.00     0.009 A 
ATOM     33  C   UNL     1      20.236   9.141  18.366  1.00  0.00     0.009 A 
ATOM     34  C   UNL     1      22.261   9.181  19.640  1.00  0.00     0.001 A 
ATOM     35  C   UNL     1      21.133   8.530  19.228  1.00  0.00     0.001 A 
BRANCH  29  36
ATOM     36  N   UNL     1      17.152  14.216  13.996  1.00  0.00    -0.365 N 
ATOM     37  C   UNL     1      15.876  14.197  14.638  1.00  0.00     0.117 C 
ATOM     38  C   UNL     1      17.065  13.426  12.778  1.00  0.00     0.126 C 
ATOM     39  C   UNL     1      15.152  13.005  14.124  1.00  0.00     0.033 C 
ATOM     40  C   UNL     1      15.638  12.943  12.688  1.00  0.00     0.061 C 
BRANCH  40  41
ATOM     41  C   UNL     1      14.772  13.780  11.842  1.00  0.00     0.064 A 
ATOM     42  C   UNL     1      13.397  13.573  11.880  1.00  0.00     0.135 A 
ATOM     43  N   UNL     1      15.208  14.747  11.022  1.00  0.00    -0.258 NA
ATOM     44  N   UNL     1      12.550  14.304  11.135  1.00  0.00    -0.261 NA
ATOM     45  C   UNL     1      14.362  15.489  10.268  1.00  0.00     0.131 A 
ATOM     46  C   UNL     1      13.005  15.278  10.312  1.00  0.00     0.131 A 
ENDBRANCH  40  41
ENDBRANCH  29  36
ENDBRANCH   2  13
TORSDOF 6
ENDMDL
MODEL 5
REMARK VINA RESULT:   -11.132      3.460     10.355
REMARK INTER + INTRA:         -16.397
REMARK INTER:                 -15.033
REMARK INTRA:                  -1.364
REMARK UNBOUND:                -1.360
REMARK SMILES CN1CCC[C@H]1CCNC(=O)c1cn2c3c(c(N4CC[C@@H](c5cnccn5)C4)c(F)cc3c1=O)Oc1cc3ccccc3cc1-2
REMARK SMILES IDX 9 1 10 2 11 3 8 5 7 6 6 7 1 8 2 9 3 10 4 11 5 12 12 13 13 14
REMARK SMILES IDX 33 15 14 16 32 17 34 18 45 19 15 20 31 21 36 22 44 23 16 24
REMARK SMILES IDX 29 25 35 26 37 27 43 28 17 29 30 30 38 31 42 32 39 33 41 34
REMARK SMILES IDX 40 35 18 36 19 37 28 38 20 39 21 40 22 41 23 42 27 43 24 44
REMARK SMILES IDX 26 45 25 46
REMARK H PARENT 9 4
REMARK Flexibility Score: inf
ROOT
ATOM      1  N   UNL     1      17.327  15.897  12.760  1.00  0.00    -0.352 N 
ATOM      2  C   UNL     1      17.640  15.971  14.120  1.00  0.00     0.256 C 
ATOM      3  O   UNL     1      16.955  16.809  14.807  1.00  0.00    -0.269 OA
ATOM      4  H   UNL     1      17.802  15.261  12.117  1.00  0.00     0.163 HD
ENDROOT
BRANCH   1   5
ATOM      5  C   UNL     1      16.267  16.759  12.213  1.00  0.00     0.118 C 
BRANCH   5   6
ATOM      6  C   UNL     1      14.976  16.005  12.147  1.00  0.00     0.040 C 
BRANCH   6   7
ATOM      7  C   UNL     1      15.246  14.551  11.906  1.00  0.00     0.058 C 
ATOM      8  C   UNL     1      14.128  14.159  13.967  1.00  0.00     0.105 C 
ATOM      9  N   UNL     1      14.306  13.707  12.616  1.00  0.00    -0.303 NA
ATOM     10  C   UNL     1      13.118  13.765  11.816  1.00  0.00     0.084 C 
ATOM     11  C   UNL     1      13.699  13.485  10.428  1.00  0.00     0.017 C 
ATOM     12  C   UNL     1      15.032  14.207  10.459  1.00  0.00     0.020 C 
ENDBRANCH   6   7
ENDBRANCH   5   6
ENDBRANCH   1   5
BRANCH   2  13
ATOM     13  C   UNL     1      18.665  15.180  14.791  1.00  0.00     0.104 A 
ATOM     14  C   UNL     1      19.809  15.826  15.257  1.00  0.00     0.110 A 
ATOM     15  C   UNL     1      18.594  13.840  15.016  1.00  0.00     0.202 A 
ATOM     16  N   UNL     1      20.791  15.174  15.893  1.00  0.00    -0.309 N 
ATOM     17  C   UNL     1      19.611  13.157  15.676  1.00  0.00     0.054 A 
ATOM     18  O   UNL     1      17.626  13.169  14.645  1.00  0.00    -0.288 OA
ATOM     19  C   UNL     1      21.940  15.898  16.348  1.00  0.00     0.089 A 
ATOM     20  C   UNL     1      20.728  13.824  16.125  1.00  0.00     0.102 A 
ATOM     21  C   UNL     1      19.509  11.797  15.888  1.00  0.00     0.056 A 
ATOM     22  C   UNL     1      22.943  15.189  17.006  1.00  0.00     0.152 A 
ATOM     23  C   UNL     1      22.034  17.249  16.133  1.00  0.00     0.039 A 
ATOM     24  C   UNL     1      21.749  13.165  16.782  1.00  0.00     0.178 A 
ATOM     25  C   UNL     1      20.533  11.133  16.547  1.00  0.00     0.151 A 
ATOM     26  O   UNL     1      22.873  13.825  17.235  1.00  0.00    -0.451 OA
ATOM     27  C   UNL     1      24.052  15.916  17.439  1.00  0.00     0.058 A 
ATOM     28  C   UNL     1      23.148  17.954  16.572  1.00  0.00    -0.016 A 
ATOM     29  C   UNL     1      21.646  11.783  16.998  1.00  0.00     0.119 A 
ATOM     30  F   UNL     1      20.352   9.801  16.702  1.00  0.00    -0.205 F 
ATOM     31  C   UNL     1      24.150  17.271  17.225  1.00  0.00    -0.015 A 
ATOM     32  C   UNL     1      23.203  19.309  16.337  1.00  0.00     0.009 A 
ATOM     33  C   UNL     1      25.242  18.015  17.647  1.00  0.00     0.009 A 
ATOM     34  C   UNL     1      24.298  20.029  16.765  1.00  0.00     0.001 A 
ATOM     35  C   UNL     1      25.309  19.380  17.415  1.00  0.00     0.001 A 
BRANCH  29  36
ATOM     36  N   UNL     1      22.717  11.088  17.689  1.00  0.00    -0.365 N 
ATOM     37  C   UNL     1      22.867  10.905  19.097  1.00  0.00     0.117 C 
ATOM     38  C   UNL     1      23.831  10.435  17.020  1.00  0.00     0.126 C 
ATOM     39  C   UNL     1      24.302  10.604  19.344  1.00  0.00     0.033 C 
ATOM     40  C   UNL     1      24.668   9.805  18.106  1.00  0.00     0.061 C 
BRANCH  40  41
ATOM     41  C   UNL     1      24.375   8.381  18.340  1.00  0.00     0.064 A 
ATOM     42  C   UNL     1      25.401   7.550  18.774  1.00  0.00     0.135 A 
ATOM     43  N   UNL     1      23.174   7.809  18.169  1.00  0.00    -0.258 NA
ATOM     44  N   UNL     1      25.201   6.242  19.009  1.00  0.00    -0.261 NA
ATOM     45  C   UNL     1      22.962   6.493  18.403  1.00  0.00     0.131 A 
ATOM     46  C   UNL     1      23.983   5.678  18.832  1.00  0.00     0.131 A 
ENDBRANCH  40  41
ENDBRANCH  29  36
ENDBRANCH   2  13
TORSDOF 6
ENDMDL
MODEL 6
REMARK VINA RESULT:   -11.104      1.364      1.833
REMARK INTER + INTRA:         -16.359
REMARK INTER:                 -15.272
REMARK INTRA:                  -1.088
REMARK UNBOUND:                -1.360
REMARK SMILES CN1CCC[C@H]1CCNC(=O)c1cn2c3c(c(N4CC[C@@H](c5cnccn5)C4)c(F)cc3c1=O)Oc1cc3ccccc3cc1-2
REMARK SMILES IDX 9 1 10 2 11 3 8 5 7 6 6 7 1 8 2 9 3 10 4 11 5 12 12 13 13 14
REMARK SMILES IDX 33 15 14 16 32 17 34 18 45 19 15 20 31 21 36 22 44 23 16 24
REMARK SMILES IDX 29 25 35 26 37 27 43 28 17 29 30 30 38 31 42 32 39 33 41 34
REMARK SMILES IDX 40 35 18 36 19 37 28 38 20 39 21 40 22 41 23 42 27 43 24 44
REMARK SMILES IDX 26 45 25 46
REMARK H PARENT 9 4
REMARK Flexibility Score: inf
ROOT
ATOM      1  N   UNL     1      23.211  11.828  16.504  1.00  0.00    -0.352 N 
ATOM      2  C   UNL     1      22.458  12.804  15.846  1.00  0.00     0.256 C 
ATOM      3  O   UNL     1      21.597  12.371  15.001  1.00  0.00    -0.269 OA
ATOM      4  H   UNL     1      23.921  12.055  17.202  1.00  0.00     0.163 HD
ENDROOT
BRANCH   1   5
ATOM      5  C   UNL     1      22.983  10.407  16.196  1.00  0.00     0.118 C 
BRANCH   5   6
ATOM      6  C   UNL     1      22.555   9.677  17.430  1.00  0.00     0.040 C 
BRANCH   6   7
ATOM      7  C   UNL     1      23.234  10.261  18.630  1.00  0.00     0.058 C 
ATOM      8  C   UNL     1      21.052  10.615  19.503  1.00  0.00     0.105 C 
ATOM      9  N   UNL     1      22.391  10.197  19.807  1.00  0.00    -0.303 NA
ATOM     10  C   UNL     1      22.498   8.833  20.233  1.00  0.00     0.084 C 
ATOM     11  C   UNL     1      24.017   8.648  20.211  1.00  0.00     0.017 C 
ATOM     12  C   UNL     1      24.445   9.451  18.998  1.00  0.00     0.020 C 
ENDBRANCH   6   7
ENDBRANCH   5   6
ENDBRANCH   1   5
BRANCH   2  13
ATOM     13  C   UNL     1      22.581  14.241  16.052  1.00  0.00     0.104 A 
ATOM     14  C   UNL     1      21.497  15.058  15.733  1.00  0.00     0.110 A 
ATOM     15  C   UNL     1      23.681  14.867  16.551  1.00  0.00     0.202 A 
ATOM     16  N   UNL     1      21.525  16.386  15.902  1.00  0.00    -0.309 N 
ATOM     17  C   UNL     1      23.717  16.247  16.730  1.00  0.00     0.054 A 
ATOM     18  O   UNL     1      24.698  14.241  16.868  1.00  0.00    -0.288 OA
ATOM     19  C   UNL     1      20.377  17.167  15.554  1.00  0.00     0.089 A 
ATOM     20  C   UNL     1      22.630  17.025  16.405  1.00  0.00     0.102 A 
ATOM     21  C   UNL     1      24.849  16.851  17.237  1.00  0.00     0.056 A 
ATOM     22  C   UNL     1      20.440  18.547  15.743  1.00  0.00     0.152 A 
ATOM     23  C   UNL     1      19.256  16.559  15.049  1.00  0.00     0.039 A 
ATOM     24  C   UNL     1      22.645  18.396  16.574  1.00  0.00     0.178 A 
ATOM     25  C   UNL     1      24.867  18.228  17.408  1.00  0.00     0.151 A 
ATOM     26  O   UNL     1      21.560  19.185  16.250  1.00  0.00    -0.451 OA
ATOM     27  C   UNL     1      19.310  19.286  15.396  1.00  0.00     0.058 A 
ATOM     28  C   UNL     1      18.140  17.315  14.709  1.00  0.00    -0.016 A 
ATOM     29  C   UNL     1      23.794  19.012  17.090  1.00  0.00     0.119 A 
ATOM     30  F   UNL     1      26.021  18.733  17.902  1.00  0.00    -0.205 F 
ATOM     31  C   UNL     1      18.183  18.680  14.889  1.00  0.00    -0.015 A 
ATOM     32  C   UNL     1      17.036  16.666  14.207  1.00  0.00     0.009 A 
ATOM     33  C   UNL     1      17.047  19.393  14.538  1.00  0.00     0.009 A 
ATOM     34  C   UNL     1      15.917  17.395  13.864  1.00  0.00     0.001 A 
ATOM     35  C   UNL     1      15.929  18.752  14.031  1.00  0.00     0.001 A 
BRANCH  29  36
ATOM     36  N   UNL     1      23.814  20.452  17.270  1.00  0.00    -0.365 N 
ATOM     37  C   UNL     1      24.783  21.376  16.774  1.00  0.00     0.117 C 
ATOM     38  C   UNL     1      22.800  21.197  17.999  1.00  0.00     0.126 C 
ATOM     39  C   UNL     1      24.676  22.603  17.605  1.00  0.00     0.033 C 
ATOM     40  C   UNL     1      23.186  22.652  17.894  1.00  0.00     0.061 C 
BRANCH  40  41
ATOM     41  C   UNL     1      22.502  23.379  16.812  1.00  0.00     0.064 A 
ATOM     42  C   UNL     1      22.286  24.745  16.956  1.00  0.00     0.135 A 
ATOM     43  N   UNL     1      22.064  22.821  15.674  1.00  0.00    -0.258 NA
ATOM     44  N   UNL     1      21.670  25.468  16.005  1.00  0.00    -0.261 NA
ATOM     45  C   UNL     1      21.443  23.541  14.710  1.00  0.00     0.131 A 
ATOM     46  C   UNL     1      21.233  24.891  14.860  1.00  0.00     0.131 A 
ENDBRANCH  40  41
ENDBRANCH  29  36
ENDBRANCH   2  13
TORSDOF 6
ENDMDL
MODEL 7
REMARK VINA RESULT:   -11.094      3.086      9.827
REMARK INTER + INTRA:         -16.345
REMARK INTER:                 -14.783
REMARK INTRA:                  -1.562
REMARK UNBOUND:                -1.360
REMARK SMILES CN1CCC[C@H]1CCNC(=O)c1cn2c3c(c(N4CC[C@@H](c5cnccn5)C4)c(F)cc3c1=O)Oc1cc3ccccc3cc1-2
REMARK SMILES IDX 9 1 10 2 11 3 8 5 7 6 6 7 1 8 2 9 3 10 4 11 5 12 12 13 13 14
REMARK SMILES IDX 33 15 14 16 32 17 34 18 45 19 15 20 31 21 36 22 44 23 16 24
REMARK SMILES IDX 29 25 35 26 37 27 43 28 17 29 30 30 38 31 42 32 39 33 41 34
REMARK SMILES IDX 40 35 18 36 19 37 28 38 20 39 21 40 22 41 23 42 27 43 24 44
REMARK SMILES IDX 26 45 25 46
REMARK H PARENT 9 4
REMARK Flexibility Score: inf
ROOT
ATOM      1  N   UNL     1      23.358  19.923  18.028  1.00  0.00    -0.352 N 
ATOM      2  C   UNL     1      23.255  18.893  17.090  1.00  0.00     0.256 C 
ATOM      3  O   UNL     1      24.357  18.326  16.759  1.00  0.00    -0.269 OA
ATOM      4  H   UNL     1      22.548  20.442  18.370  1.00  0.00     0.163 HD
ENDROOT
BRANCH   1   5
ATOM      5  C   UNL     1      24.680  20.288  18.562  1.00  0.00     0.118 C 
BRANCH   5   6
ATOM      6  C   UNL     1      24.957  21.735  18.302  1.00  0.00     0.040 C 
BRANCH   6   7
ATOM      7  C   UNL     1      24.256  22.172  17.053  1.00  0.00     0.058 C 
ATOM      8  C   UNL     1      23.406  23.978  18.344  1.00  0.00     0.105 C 
ATOM      9  N   UNL     1      23.954  23.590  17.075  1.00  0.00    -0.303 NA
ATOM     10  C   UNL     1      25.206  24.213  16.761  1.00  0.00     0.084 C 
ATOM     11  C   UNL     1      25.621  23.407  15.528  1.00  0.00     0.017 C 
ATOM     12  C   UNL     1      25.152  22.004  15.858  1.00  0.00     0.020 C 
ENDBRANCH   6   7
ENDBRANCH   5   6
ENDBRANCH   1   5
BRANCH   2  13
ATOM     13  C   UNL     1      22.015  18.432  16.479  1.00  0.00     0.104 A 
ATOM     14  C   UNL     1      21.749  17.064  16.454  1.00  0.00     0.110 A 
ATOM     15  C   UNL     1      21.068  19.241  15.930  1.00  0.00     0.202 A 
ATOM     16  N   UNL     1      20.628  16.561  15.922  1.00  0.00    -0.309 N 
ATOM     17  C   UNL     1      19.901  18.724  15.375  1.00  0.00     0.054 A 
ATOM     18  O   UNL     1      21.200  20.468  15.897  1.00  0.00    -0.288 OA
ATOM     19  C   UNL     1      20.417  15.144  15.929  1.00  0.00     0.089 A 
ATOM     20  C   UNL     1      19.668  17.368  15.366  1.00  0.00     0.102 A 
ATOM     21  C   UNL     1      18.961  19.571  14.825  1.00  0.00     0.056 A 
ATOM     22  C   UNL     1      19.239  14.654  15.367  1.00  0.00     0.152 A 
ATOM     23  C   UNL     1      21.357  14.309  16.477  1.00  0.00     0.039 A 
ATOM     24  C   UNL     1      18.517  16.834  14.820  1.00  0.00     0.178 A 
ATOM     25  C   UNL     1      17.803  19.038  14.276  1.00  0.00     0.151 A 
ATOM     26  O   UNL     1      18.275  15.475  14.807  1.00  0.00    -0.451 OA
ATOM     27  C   UNL     1      19.057  13.272  15.386  1.00  0.00     0.058 A 
ATOM     28  C   UNL     1      21.155  12.934  16.485  1.00  0.00    -0.016 A 
ATOM     29  C   UNL     1      17.560  17.694  14.262  1.00  0.00     0.119 A 
ATOM     30  F   UNL     1      16.943  19.942  13.752  1.00  0.00    -0.205 F 
ATOM     31  C   UNL     1      19.997  12.430  15.934  1.00  0.00    -0.015 A 
ATOM     32  C   UNL     1      22.122  12.132  17.045  1.00  0.00     0.009 A 
ATOM     33  C   UNL     1      19.838  11.054  15.966  1.00  0.00     0.009 A 
ATOM     34  C   UNL     1      21.943  10.765  17.065  1.00  0.00     0.001 A 
ATOM     35  C   UNL     1      20.804  10.234  16.526  1.00  0.00     0.001 A 
BRANCH  29  36
ATOM     36  N   UNL     1      16.349  17.137  13.688  1.00  0.00    -0.365 N 
ATOM     37  C   UNL     1      16.237  16.315  12.525  1.00  0.00     0.117 C 
ATOM     38  C   UNL     1      15.019  17.330  14.243  1.00  0.00     0.126 C 
ATOM     39  C   UNL     1      14.830  16.420  12.055  1.00  0.00     0.033 C 
ATOM     40  C   UNL     1      14.075  16.544  13.366  1.00  0.00     0.061 C 
BRANCH  40  41
ATOM     41  C   UNL     1      13.758  15.201  13.877  1.00  0.00     0.064 A 
ATOM     42  C   UNL     1      13.813  14.976  15.248  1.00  0.00     0.135 A 
ATOM     43  N   UNL     1      13.411  14.155  13.113  1.00  0.00    -0.258 NA
ATOM     44  N   UNL     1      13.533  13.773  15.779  1.00  0.00    -0.261 NA
ATOM     45  C   UNL     1      13.127  12.940  13.639  1.00  0.00     0.131 A 
ATOM     46  C   UNL     1      13.183  12.726  14.996  1.00  0.00     0.131 A 
ENDBRANCH  40  41
ENDBRANCH  29  36
ENDBRANCH   2  13
TORSDOF 6
ENDMDL
MODEL 8
REMARK VINA RESULT:   -11.076      2.100      9.674
REMARK INTER + INTRA:         -16.321
REMARK INTER:                 -15.207
REMARK INTRA:                  -1.115
REMARK UNBOUND:                -1.360
REMARK SMILES CN1CCC[C@H]1CCNC(=O)c1cn2c3c(c(N4CC[C@@H](c5cnccn5)C4)c(F)cc3c1=O)Oc1cc3ccccc3cc1-2
REMARK SMILES IDX 9 1 10 2 11 3 8 5 7 6 6 7 1 8 2 9 3 10 4 11 5 12 12 13 13 14
REMARK SMILES IDX 33 15 14 16 32 17 34 18 45 19 15 20 31 21 36 22 44 23 16 24
REMARK SMILES IDX 29 25 35 26 37 27 43 28 17 29 30 30 38 31 42 32 39 33 41 34
REMARK SMILES IDX 40 35 18 36 19 37 28 38 20 39 21 40 22 41 23 42 27 43 24 44
REMARK SMILES IDX 26 45 25 46
REMARK H PARENT 9 4
REMARK Flexibility Score: inf
ROOT
ATOM      1  N   UNL     1      24.550  20.722  16.974  1.00  0.00    -0.352 N 
ATOM      2  C   UNL     1      23.867  20.078  15.939  1.00  0.00     0.256 C 
ATOM      3  O   UNL     1      23.766  20.734  14.842  1.00  0.00    -0.269 OA
ATOM      4  H   UNL     1      24.697  20.294  17.890  1.00  0.00     0.163 HD
ENDROOT
BRANCH   1   5
ATOM      5  C   UNL     1      25.094  22.072  16.753  1.00  0.00     0.118 C 
BRANCH   5   6
ATOM      6  C   UNL     1      24.342  23.068  17.579  1.00  0.00     0.040 C 
BRANCH   6   7
ATOM      7  C   UNL     1      23.059  23.432  16.897  1.00  0.00     0.058 C 
ATOM      8  C   UNL     1      21.966  22.391  18.733  1.00  0.00     0.105 C 
ATOM      9  N   UNL     1      21.957  23.511  17.835  1.00  0.00    -0.303 NA
ATOM     10  C   UNL     1      22.142  24.779  18.477  1.00  0.00     0.084 C 
ATOM     11  C   UNL     1      22.346  25.685  17.260  1.00  0.00     0.017 C 
ATOM     12  C   UNL     1      23.146  24.814  16.311  1.00  0.00     0.020 C 
ENDBRANCH   6   7
ENDBRANCH   5   6
ENDBRANCH   1   5
BRANCH   2  13
ATOM     13  C   UNL     1      23.278  18.747  16.021  1.00  0.00     0.104 A 
ATOM     14  C   UNL     1      21.941  18.584  15.659  1.00  0.00     0.110 A 
ATOM     15  C   UNL     1      23.937  17.625  16.417  1.00  0.00     0.202 A 
ATOM     16  N   UNL     1      21.329  17.394  15.695  1.00  0.00    -0.309 N 
ATOM     17  C   UNL     1      23.306  16.385  16.458  1.00  0.00     0.054 A 
ATOM     18  O   UNL     1      25.123  17.654  16.760  1.00  0.00    -0.288 OA
ATOM     19  C   UNL     1      19.953  17.296  15.309  1.00  0.00     0.089 A 
ATOM     20  C   UNL     1      21.985  16.257  16.093  1.00  0.00     0.102 A 
ATOM     21  C   UNL     1      24.002  15.265  16.866  1.00  0.00     0.056 A 
ATOM     22  C   UNL     1      19.346  16.041  15.358  1.00  0.00     0.152 A 
ATOM     23  C   UNL     1      19.268  18.413  14.906  1.00  0.00     0.039 A 
ATOM     24  C   UNL     1      21.340  15.036  16.126  1.00  0.00     0.178 A 
ATOM     25  C   UNL     1      23.357  14.038  16.900  1.00  0.00     0.151 A 
ATOM     26  O   UNL     1      20.016  14.898  15.763  1.00  0.00    -0.451 OA
ATOM     27  C   UNL     1      18.007  15.971  14.979  1.00  0.00     0.058 A 
ATOM     28  C   UNL     1      17.933  18.320  14.531  1.00  0.00    -0.016 A 
ATOM     29  C   UNL     1      22.046  13.898  16.540  1.00  0.00     0.119 A 
ATOM     30  F   UNL     1      24.115  12.999  17.321  1.00  0.00    -0.205 F 
ATOM     31  C   UNL     1      17.315  17.089  14.573  1.00  0.00    -0.015 A 
ATOM     32  C   UNL     1      17.282  19.465  14.132  1.00  0.00     0.009 A 
ATOM     33  C   UNL     1      15.984  17.045  14.190  1.00  0.00     0.009 A 
ATOM     34  C   UNL     1      15.957  19.397  13.755  1.00  0.00     0.001 A 
ATOM     35  C   UNL     1      15.317  18.190  13.786  1.00  0.00     0.001 A 
BRANCH  29  36
ATOM     36  N   UNL     1      21.372  12.612  16.575  1.00  0.00    -0.365 N 
ATOM     37  C   UNL     1      21.401  11.589  15.579  1.00  0.00     0.117 C 
ATOM     38  C   UNL     1      20.547  12.154  17.681  1.00  0.00     0.126 C 
ATOM     39  C   UNL     1      20.210  10.730  15.808  1.00  0.00     0.033 C 
ATOM     40  C   UNL     1      20.091  10.761  17.321  1.00  0.00     0.061 C 
BRANCH  40  41
ATOM     41  C   UNL     1      20.920   9.690  17.898  1.00  0.00     0.064 A 
ATOM     42  C   UNL     1      20.338   8.807  18.800  1.00  0.00     0.135 A 
ATOM     43  N   UNL     1      22.216   9.490  17.616  1.00  0.00    -0.258 NA
ATOM     44  N   UNL     1      21.037   7.805  19.361  1.00  0.00    -0.261 NA
ATOM     45  C   UNL     1      22.928   8.483  18.176  1.00  0.00     0.131 A 
ATOM     46  C   UNL     1      22.345   7.615  19.067  1.00  0.00     0.131 A 
ENDBRANCH  40  41
ENDBRANCH  29  36
ENDBRANCH   2  13
TORSDOF 6
ENDMDL
MODEL 9
REMARK VINA RESULT:   -11.050      3.396      6.670
REMARK INTER + INTRA:         -16.285
REMARK INTER:                 -14.670
REMARK INTRA:                  -1.615
REMARK UNBOUND:                -1.360
REMARK SMILES CN1CCC[C@H]1CCNC(=O)c1cn2c3c(c(N4CC[C@@H](c5cnccn5)C4)c(F)cc3c1=O)Oc1cc3ccccc3cc1-2
REMARK SMILES IDX 9 1 10 2 11 3 8 5 7 6 6 7 1 8 2 9 3 10 4 11 5 12 12 13 13 14
REMARK SMILES IDX 33 15 14 16 32 17 34 18 45 19 15 20 31 21 36 22 44 23 16 24
REMARK SMILES IDX 29 25 35 26 37 27 43 28 17 29 30 30 38 31 42 32 39 33 41 34
REMARK SMILES IDX 40 35 18 36 19 37 28 38 20 39 21 40 22 41 23 42 27 43 24 44
REMARK SMILES IDX 26 45 25 46
REMARK H PARENT 9 4
REMARK Flexibility Score: inf
ROOT
ATOM      1  N   UNL     1      22.749  10.652  16.483  1.00  0.00    -0.352 N 
ATOM      2  C   UNL     1      22.455  11.953  16.900  1.00  0.00     0.256 C 
ATOM      3  O   UNL     1      23.203  12.425  17.827  1.00  0.00    -0.269 OA
ATOM      4  H   UNL     1      22.225  10.175  15.747  1.00  0.00     0.163 HD
ENDROOT
BRANCH   1   5
ATOM      5  C   UNL     1      23.862   9.923  17.114  1.00  0.00     0.118 C 
BRANCH   5   6
ATOM      6  C   UNL     1      23.329   8.895  18.062  1.00  0.00     0.040 C 
BRANCH   6   7
ATOM      7  C   UNL     1      23.402   9.411  19.467  1.00  0.00     0.058 C 
ATOM      8  C   UNL     1      21.086   8.893  19.614  1.00  0.00     0.105 C 
ATOM      9  N   UNL     1      22.349   8.858  20.296  1.00  0.00    -0.303 NA
ATOM     10  C   UNL     1      22.813   7.537  20.605  1.00  0.00     0.084 C 
ATOM     11  C   UNL     1      24.243   7.839  21.059  1.00  0.00     0.017 C 
ATOM     12  C   UNL     1      24.672   8.958  20.130  1.00  0.00     0.020 C 
ENDBRANCH   6   7
ENDBRANCH   5   6
ENDBRANCH   1   5
BRANCH   2  13
ATOM     13  C   UNL     1      21.384  12.785  16.365  1.00  0.00     0.104 A 
ATOM     14  C   UNL     1      21.538  14.170  16.392  1.00  0.00     0.110 A 
ATOM     15  C   UNL     1      20.229  12.316  15.820  1.00  0.00     0.202 A 
ATOM     16  N   UNL     1      20.606  15.004  15.911  1.00  0.00    -0.309 N 
ATOM     17  C   UNL     1      19.257  13.177  15.319  1.00  0.00     0.054 A 
ATOM     18  O   UNL     1      19.989  11.107  15.746  1.00  0.00    -0.288 OA
ATOM     19  C   UNL     1      20.827  16.417  15.969  1.00  0.00     0.089 A 
ATOM     20  C   UNL     1      19.439  14.540  15.360  1.00  0.00     0.102 A 
ATOM     21  C   UNL     1      18.096  12.670  14.774  1.00  0.00     0.056 A 
ATOM     22  C   UNL     1      19.837  17.257  15.459  1.00  0.00     0.152 A 
ATOM     23  C   UNL     1      21.983  16.914  16.513  1.00  0.00     0.039 A 
ATOM     24  C   UNL     1      18.487  15.412  14.868  1.00  0.00     0.178 A 
ATOM     25  C   UNL     1      17.138  13.542  14.279  1.00  0.00     0.151 A 
ATOM     26  O   UNL     1      18.660  16.781  14.905  1.00  0.00    -0.451 OA
ATOM     27  C   UNL     1      20.074  18.629  15.527  1.00  0.00     0.058 A 
ATOM     28  C   UNL     1      22.199  18.286  16.571  1.00  0.00    -0.016 A 
ATOM     29  C   UNL     1      17.307  14.898  14.313  1.00  0.00     0.119 A 
ATOM     30  F   UNL     1      16.029  12.957  13.772  1.00  0.00    -0.205 F 
ATOM     31  C   UNL     1      21.233  19.132  16.073  1.00  0.00    -0.015 A 
ATOM     32  C   UNL     1      23.374  18.743  17.125  1.00  0.00     0.009 A 
ATOM     33  C   UNL     1      21.492  20.491  16.150  1.00  0.00     0.009 A 
ATOM     34  C   UNL     1      23.610  20.099  17.192  1.00  0.00     0.001 A 
ATOM     35  C   UNL     1      22.670  20.964  16.706  1.00  0.00     0.001 A 
BRANCH  29  36
ATOM     36  N   UNL     1      16.304  15.811  13.795  1.00  0.00    -0.365 N 
ATOM     37  C   UNL     1      15.370  16.591  14.543  1.00  0.00     0.117 C 
ATOM     38  C   UNL     1      16.106  16.088  12.381  1.00  0.00     0.126 C 
ATOM     39  C   UNL     1      14.265  16.948  13.615  1.00  0.00     0.033 C 
ATOM     40  C   UNL     1      15.007  17.120  12.302  1.00  0.00     0.061 C 
BRANCH  40  41
ATOM     41  C   UNL     1      15.490  18.506  12.191  1.00  0.00     0.064 A 
ATOM     42  C   UNL     1      14.558  19.535  12.116  1.00  0.00     0.135 A 
ATOM     43  N   UNL     1      16.781  18.865  12.158  1.00  0.00    -0.258 NA
ATOM     44  N   UNL     1      14.932  20.822  12.016  1.00  0.00    -0.261 NA
ATOM     45  C   UNL     1      17.168  20.159  12.057  1.00  0.00     0.131 A 
ATOM     46  C   UNL     1      16.240  21.170  11.984  1.00  0.00     0.131 A 
ENDBRANCH  40  41
ENDBRANCH  29  36
ENDBRANCH   2  13
TORSDOF 6
ENDMDL
MODEL 10
REMARK VINA RESULT:   -11.002      3.103      9.864
REMARK INTER + INTRA:         -16.221
REMARK INTER:                 -14.699
REMARK INTRA:                  -1.522
REMARK UNBOUND:                -1.360
REMARK SMILES CN1CCC[C@H]1CCNC(=O)c1cn2c3c(c(N4CC[C@@H](c5cnccn5)C4)c(F)cc3c1=O)Oc1cc3ccccc3cc1-2
REMARK SMILES IDX 9 1 10 2 11 3 8 5 7 6 6 7 1 8 2 9 3 10 4 11 5 12 12 13 13 14
REMARK SMILES IDX 33 15 14 16 32 17 34 18 45 19 15 20 31 21 36 22 44 23 16 24
REMARK SMILES IDX 29 25 35 26 37 27 43 28 17 29 30 30 38 31 42 32 39 33 41 34
REMARK SMILES IDX 40 35 18 36 19 37 28 38 20 39 21 40 22 41 23 42 27 43 24 44
REMARK SMILES IDX 26 45 25 46
REMARK H PARENT 9 4
REMARK Flexibility Score: inf
ROOT
ATOM      1  N   UNL     1      23.736  18.905  17.975  1.00  0.00    -0.352 N 
ATOM      2  C   UNL     1      23.791  17.788  17.138  1.00  0.00     0.256 C 
ATOM      3  O   UNL     1      24.966  17.395  16.807  1.00  0.00    -0.269 OA
ATOM      4  H   UNL     1      22.856  19.303  18.309  1.00  0.00     0.163 HD
ENDROOT
BRANCH   1   5
ATOM      5  C   UNL     1      24.986  19.546  18.413  1.00  0.00     0.118 C 
BRANCH   5   6
ATOM      6  C   UNL     1      24.748  20.997  18.693  1.00  0.00     0.040 C 
BRANCH   6   7
ATOM      7  C   UNL     1      24.244  21.679  17.459  1.00  0.00     0.058 C 
ATOM      8  C   UNL     1      22.234  22.052  18.671  1.00  0.00     0.105 C 
ATOM      9  N   UNL     1      23.187  22.623  17.762  1.00  0.00    -0.303 NA
ATOM     10  C   UNL     1      23.883  23.764  18.281  1.00  0.00     0.084 C 
ATOM     11  C   UNL     1      24.964  23.945  17.213  1.00  0.00     0.017 C 
ATOM     12  C   UNL     1      25.326  22.520  16.842  1.00  0.00     0.020 C 
ENDBRANCH   6   7
ENDBRANCH   5   6
ENDBRANCH   1   5
BRANCH   2  13
ATOM     13  C   UNL     1      22.635  17.060  16.629  1.00  0.00     0.104 A 
ATOM     14  C   UNL     1      22.494  15.713  16.962  1.00  0.00     0.110 A 
ATOM     15  C   UNL     1      21.656  17.596  15.852  1.00  0.00     0.202 A 
ATOM     16  N   UNL     1      21.457  14.977  16.544  1.00  0.00    -0.309 N 
ATOM     17  C   UNL     1      20.575  16.836  15.415  1.00  0.00     0.054 A 
ATOM     18  O   UNL     1      21.680  18.778  15.498  1.00  0.00    -0.288 OA
ATOM     19  C   UNL     1      21.372  13.598  16.922  1.00  0.00     0.089 A 
ATOM     20  C   UNL     1      20.464  15.508  15.760  1.00  0.00     0.102 A 
ATOM     21  C   UNL     1      19.598  17.408  14.626  1.00  0.00     0.056 A 
ATOM     22  C   UNL     1      20.278  12.860  16.470  1.00  0.00     0.152 A 
ATOM     23  C   UNL     1      22.347  13.036  17.705  1.00  0.00     0.039 A 
ATOM     24  C   UNL     1      19.400  14.736  15.337  1.00  0.00     0.178 A 
ATOM     25  C   UNL     1      18.528  16.636  14.200  1.00  0.00     0.151 A 
ATOM     26  O   UNL     1      19.281  13.404  15.678  1.00  0.00    -0.451 OA
ATOM     27  C   UNL     1      20.219  11.521  16.851  1.00  0.00     0.058 A 
ATOM     28  C   UNL     1      22.268  11.698  18.072  1.00  0.00    -0.016 A 
ATOM     29  C   UNL     1      18.406  15.317  14.537  1.00  0.00     0.119 A 
ATOM     30  F   UNL     1      17.624  17.278  13.424  1.00  0.00    -0.205 F 
ATOM     31  C   UNL     1      21.195  10.952  17.636  1.00  0.00    -0.015 A 
ATOM     32  C   UNL     1      23.267  11.173  18.859  1.00  0.00     0.009 A 
ATOM     33  C   UNL     1      21.157   9.623  18.028  1.00  0.00     0.009 A 
ATOM     34  C   UNL     1      23.209   9.848  19.237  1.00  0.00     0.001 A 
ATOM     35  C   UNL     1      22.156   9.082  18.820  1.00  0.00     0.001 A 
BRANCH  29  36
ATOM     36  N   UNL     1      17.286  14.510  14.090  1.00  0.00    -0.365 N 
ATOM     37  C   UNL     1      16.011  14.368  14.720  1.00  0.00     0.117 C 
ATOM     38  C   UNL     1      17.292  13.704  12.879  1.00  0.00     0.126 C 
ATOM     39  C   UNL     1      15.416  13.105  14.211  1.00  0.00     0.033 C 
ATOM     40  C   UNL     1      15.922  13.078  12.780  1.00  0.00     0.061 C 
BRANCH  40  41
ATOM     41  C   UNL     1      14.985  13.816  11.917  1.00  0.00     0.064 A 
ATOM     42  C   UNL     1      15.499  14.682  10.958  1.00  0.00     0.135 A 
ATOM     43  N   UNL     1      13.649  13.717  11.979  1.00  0.00    -0.258 NA
ATOM     44  N   UNL     1      14.699  15.383  10.136  1.00  0.00    -0.261 NA
ATOM     45  C   UNL     1      12.835  14.420  11.155  1.00  0.00     0.131 A 
ATOM     46  C   UNL     1      13.352  15.273  10.210  1.00  0.00     0.131 A 
ENDBRANCH  40  41
ENDBRANCH  29  36
ENDBRANCH   2  13
TORSDOF 6
ENDMDL
