REMARK SMILES CN1CCC[C@H]1CCNC(=O)c1cn2c3c(c(N4CC[C@@H](c5cnccn5)C4)c(F)cc3c1=O)Oc1cc3ccccc3cc1-2
REMARK SMILES IDX 9 1 10 2 11 3 8 5 7 6 6 7 1 8 2 9 3 10 4 11 5 12 12 13 13 14
REMARK SMILES IDX 33 15 14 16 32 17 34 18 45 19 15 20 31 21 36 22 44 23 16 24
REMARK SMILES IDX 29 25 35 26 37 27 43 28 17 29 30 30 38 31 42 32 39 33 41 34
REMARK SMILES IDX 40 35 18 36 19 37 28 38 20 39 21 40 22 41 23 42 27 43 24 44
REMARK SMILES IDX 26 45 25 46
REMARK H PARENT 9 4
REMARK Flexibility Score: inf
ROOT
ATOM      1  N   UNL     1       4.162   0.544  -0.423  1.00  0.00    -0.352 N 
ATOM      2  C   UNL     1       3.131  -0.380  -0.610  1.00  0.00     0.256 C 
ATOM      3  O   UNL     1       3.479  -1.516  -1.092  1.00  0.00    -0.269 OA
ATOM      4  H   UNL     1       4.005   1.478  -0.040  1.00  0.00     0.163 HD
ENDROOT
BRANCH   1   5
ATOM      5  C   UNL     1       5.541   0.174  -0.781  1.00  0.00     0.118 C 
BRANCH   5   6
ATOM      6  C   UNL     1       6.469   1.312  -0.491  1.00  0.00     0.040 C 
BRANCH   6   7
ATOM      7  C   UNL     1       7.870   0.935  -0.863  1.00  0.00     0.058 C 
ATOM      8  C   UNL     1       8.276   3.267  -1.082  1.00  0.00     0.105 C 
ATOM      9  N   UNL     1       8.801   2.017  -0.610  1.00  0.00    -0.303 NA
ATOM     10  C   UNL     1       9.011   1.966   0.807  1.00  0.00     0.084 C 
ATOM     11  C   UNL     1       9.301   0.475   0.996  1.00  0.00     0.017 C 
ATOM     12  C   UNL     1       8.363  -0.188   0.006  1.00  0.00     0.020 C 
ENDBRANCH   6   7
ENDBRANCH   5   6
ENDBRANCH   1   5
BRANCH   2  13
ATOM     13  C   UNL     1       1.726  -0.146  -0.302  1.00  0.00     0.104 A 
ATOM     14  C   UNL     1       0.836  -1.216  -0.385  1.00  0.00     0.110 A 
ATOM     15  C   UNL     1       1.199   1.049   0.079  1.00  0.00     0.202 A 
ATOM     16  N   UNL     1      -0.468  -1.087  -0.108  1.00  0.00    -0.309 N 
ATOM     17  C   UNL     1      -0.155   1.190   0.368  1.00  0.00     0.054 A 
ATOM     18  O   UNL     1       1.896   2.063   0.185  1.00  0.00    -0.288 OA
ATOM     19  C   UNL     1      -1.328  -2.227  -0.213  1.00  0.00     0.089 A 
ATOM     20  C   UNL     1      -1.008   0.114   0.277  1.00  0.00     0.102 A 
ATOM     21  C   UNL     1      -0.659   2.416   0.751  1.00  0.00     0.056 A 
ATOM     22  C   UNL     1      -2.680  -2.058   0.083  1.00  0.00     0.152 A 
ATOM     23  C   UNL     1      -0.820  -3.442  -0.595  1.00  0.00     0.039 A 
ATOM     24  C   UNL     1      -2.355   0.232   0.559  1.00  0.00     0.178 A 
ATOM     25  C   UNL     1      -2.011   2.538   1.035  1.00  0.00     0.151 A 
ATOM     26  O   UNL     1      -3.218  -0.842   0.470  1.00  0.00    -0.451 OA
ATOM     27  C   UNL     1      -3.497  -3.182  -0.027  1.00  0.00     0.058 A 
ATOM     28  C   UNL     1      -1.653  -4.550  -0.698  1.00  0.00    -0.016 A 
ATOM     29  C   UNL     1      -2.868   1.477   0.949  1.00  0.00     0.119 A 
ATOM     30  F   UNL     1      -2.417   3.778   1.393  1.00  0.00    -0.205 F 
ATOM     31  C   UNL     1      -2.992  -4.403  -0.410  1.00  0.00    -0.015 A 
ATOM     32  C   UNL     1      -1.103  -5.751  -1.084  1.00  0.00     0.009 A 
ATOM     33  C   UNL     1      -3.784  -5.535  -0.525  1.00  0.00     0.009 A 
ATOM     34  C   UNL     1      -1.910  -6.864  -1.192  1.00  0.00     0.001 A 
ATOM     35  C   UNL     1      -3.243  -6.750  -0.913  1.00  0.00     0.001 A 
BRANCH  29  36
ATOM     36  N   UNL     1      -4.283   1.605   1.247  1.00  0.00    -0.365 N 
ATOM     37  C   UNL     1      -4.981   2.781   1.659  1.00  0.00     0.117 C 
ATOM     38  C   UNL     1      -5.239   0.513   1.152  1.00  0.00     0.126 C 
ATOM     39  C   UNL     1      -6.237   2.331   2.314  1.00  0.00     0.033 C 
ATOM     40  C   UNL     1      -6.586   1.098   1.500  1.00  0.00     0.061 C 
BRANCH  40  41
ATOM     41  C   UNL     1      -7.389   1.495   0.332  1.00  0.00     0.064 A 
ATOM     42  C   UNL     1      -8.629   0.897   0.138  1.00  0.00     0.135 A 
ATOM     43  N   UNL     1      -7.016   2.407  -0.578  1.00  0.00    -0.258 NA
ATOM     44  N   UNL     1      -9.413   1.216  -0.906  1.00  0.00    -0.261 NA
ATOM     45  C   UNL     1      -7.799   2.735  -1.633  1.00  0.00     0.131 A 
ATOM     46  C   UNL     1      -9.024   2.139  -1.817  1.00  0.00     0.131 A 
ENDBRANCH  40  41
ENDBRANCH  29  36
ENDBRANCH   2  13
TORSDOF 6
